version 2
run TwentyFiveStudentsNOCCTV-9-20160815-01:57:03-31466
attr configname TwentyFiveStudentsNOCCTV
attr datetime 20160815-01:57:03
attr experiment TwentyFiveStudentsNOCCTV
attr inifile omnetpp.ini
attr iterationvars ""
attr iterationvars2 $repetition=9
attr measurement ""
attr network UniversityNetwork
attr processid 31466
attr repetition 9
attr replication #9
attr resultdir results
attr runnumber 9
attr seedset 9

scalar UniversityNetwork.CCTV.networkLayer.arp 	initiatedARPResolution:count 	0
attr title  "ARP initiated resolutions, count"
scalar UniversityNetwork.CCTV.networkLayer.arp 	sentReply:count 	0
attr title  "ARP replies sent, count"
scalar UniversityNetwork.CCTV.networkLayer.arp 	sentReq:count 	0
attr title  "ARP request sent, count"
scalar UniversityNetwork.CCTV.networkLayer.arp 	failedARPResolution:count 	0
attr title  "ARP failed resolutions, count"
scalar UniversityNetwork.CCTV.networkLayer.arp 	completedARPResolution:count 	0
attr title  "ARP completed resolutions, count"
scalar UniversityNetwork.CCTV.lo0.lo 	rcvdPkFromHL:count 	0
attr interpolationmode  none
attr source  packetReceivedFromUpper
attr title  "packets received from higher layer, count"
scalar UniversityNetwork.CCTV.lo0.lo 	rcvdPkFromHL:sum(packetBytes) 	0
attr interpolationmode  none
attr source  packetReceivedFromUpper
attr title  "packets received from higher layer, sum(packetBytes)"
scalar UniversityNetwork.CCTV.lo0.lo 	passedUpPk:count 	0
attr interpolationmode  none
attr source  packetSentToUpper
attr title  "packets passed to higher layer, count"
scalar UniversityNetwork.CCTV.lo0.lo 	passedUpPk:sum(packetBytes) 	0
attr interpolationmode  none
attr source  packetSentToUpper
attr title  "packets passed to higher layer, sum(packetBytes)"
scalar UniversityNetwork.CCTV.lo0.lo 	droppedPkBitError:count 	0
attr interpolationmode  none
attr source  dropPkBitError
attr title  "packets dropped/bit error, count"
scalar UniversityNetwork.CCTV.lo0.lo 	droppedPkBitError:sum(packetBytes) 	0
attr interpolationmode  none
attr source  dropPkBitError
attr title  "packets dropped/bit error, sum(packetBytes)"
scalar UniversityNetwork.CCTV.ppp[0].inputHook[0] 	duration 	300
scalar UniversityNetwork.CCTV.ppp[0].inputHook[0] 	"total packets" 	0
scalar UniversityNetwork.CCTV.ppp[0].inputHook[0] 	"total bits" 	0
scalar UniversityNetwork.CCTV.ppp[0].inputHook[0] 	"avg throughput (bit/s)" 	0
scalar UniversityNetwork.CCTV.ppp[0].inputHook[0] 	"avg packets/s" 	0
statistic UniversityNetwork.CCTV.ppp[0].queue 	queueingTime:histogram
field count 0
field mean -nan
field stddev -nan
field sum 0
field sqrsum 0
field min -nan
field max -nan
attr interpolationmode  none
attr title  "queueing time, histogram"
bin	-INF	0
bin	-0.5	0
bin	-0.46666666666667	0
bin	-0.43333333333333	0
bin	-0.4	0
bin	-0.36666666666667	0
bin	-0.33333333333333	0
bin	-0.3	0
bin	-0.26666666666667	0
bin	-0.23333333333333	0
bin	-0.2	0
bin	-0.16666666666667	0
bin	-0.13333333333333	0
bin	-0.1	0
bin	-0.066666666666667	0
bin	-0.033333333333333	0
bin	0	0
bin	0.033333333333333	0
bin	0.066666666666667	0
bin	0.1	0
bin	0.13333333333333	0
bin	0.16666666666667	0
bin	0.2	0
bin	0.23333333333333	0
bin	0.26666666666667	0
bin	0.3	0
bin	0.33333333333333	0
bin	0.36666666666667	0
bin	0.4	0
bin	0.43333333333333	0
bin	0.46666666666667	0
bin	0.5	0
scalar UniversityNetwork.CCTV.ppp[0].queue 	dropPk:count 	0
attr interpolationmode  none
attr source  dropPkByQueue
attr title  "dropped packets, count"
scalar UniversityNetwork.CCTV.ppp[0].queue 	dropPk:sum(packetBytes) 	0
attr interpolationmode  none
attr source  dropPkByQueue
attr title  "dropped packets, sum(packetBytes)"
scalar UniversityNetwork.CCTV.ppp[0].queue 	queueLength:max 	0
attr interpolationmode  sample-hold
attr title  "queue length, max"
scalar UniversityNetwork.CCTV.ppp[0].queue 	queueLength:timeavg 	0
attr interpolationmode  sample-hold
attr title  "queue length, timeavg"
scalar UniversityNetwork.CCTV.ppp[0].queue 	rcvdPk:count 	0
attr interpolationmode  none
attr title  "received packets, count"
scalar UniversityNetwork.CCTV.ppp[0].queue 	rcvdPk:sum(packetBytes) 	0
attr interpolationmode  none
attr title  "received packets, sum(packetBytes)"
scalar UniversityNetwork.CCTV.ppp[0].ppp 	rcvdPkFromHL:count 	0
attr interpolationmode  none
attr source  packetReceivedFromUpper
attr title  "packets received from higher layer, count"
scalar UniversityNetwork.CCTV.ppp[0].ppp 	rcvdPkFromHL:sum(packetBytes) 	0
attr interpolationmode  none
attr source  packetReceivedFromUpper
attr title  "packets received from higher layer, sum(packetBytes)"
scalar UniversityNetwork.CCTV.ppp[0].ppp 	passedUpPk:count 	0
attr interpolationmode  none
attr source  packetSentToUpper
attr title  "packets passed to higher layer, count"
scalar UniversityNetwork.CCTV.ppp[0].ppp 	passedUpPk:sum(packetBytes) 	0
attr interpolationmode  none
attr source  packetSentToUpper
attr title  "packets passed to higher layer, sum(packetBytes)"
scalar UniversityNetwork.CCTV.ppp[0].ppp 	txPk:count 	0
attr interpolationmode  none
attr source  packetSentToLower
attr title  "packets transmitted, count"
scalar UniversityNetwork.CCTV.ppp[0].ppp 	txPk:sum(packetBytes) 	0
attr interpolationmode  none
attr source  packetSentToLower
attr title  "packets transmitted, sum(packetBytes)"
scalar UniversityNetwork.CCTV.ppp[0].ppp 	droppedPkBitError:count 	0
attr interpolationmode  none
attr source  dropPkBitError
attr title  "packets dropped/bit error, count"
scalar UniversityNetwork.CCTV.ppp[0].ppp 	droppedPkBitError:sum(packetBytes) 	0
attr interpolationmode  none
attr source  dropPkBitError
attr title  "packets dropped/bit error, sum(packetBytes)"
scalar UniversityNetwork.CCTV.ppp[0].ppp 	droppedPkIfaceDown:count 	0
attr interpolationmode  none
attr source  dropPkIfaceDown
attr title  "packets dropped/interface down, count"
scalar UniversityNetwork.CCTV.ppp[0].ppp 	droppedPkIfaceDown:sum(packetBytes) 	0
attr interpolationmode  none
attr source  dropPkIfaceDown
attr title  "packets dropped/interface down, sum(packetBytes)"
scalar UniversityNetwork.CCTV.ppp[0].ppp 	rxPkOk:count 	0
attr interpolationmode  none
attr source  rxPkOk
attr title  "packets received OK, count"
scalar UniversityNetwork.CCTV.ppp[0].ppp 	rxPkOk:sum(packetBytes) 	0
attr interpolationmode  none
attr source  rxPkOk
attr title  "packets received OK, sum(packetBytes)"
scalar UniversityNetwork.CCTV.ppp[0].ppp 	txState:timeavg 	0
attr interpolationmode  sample-hold
attr title  "tx state, timeavg"
scalar UniversityNetwork.CCTVMonitoring.networkLayer.arp 	initiatedARPResolution:count 	0
attr title  "ARP initiated resolutions, count"
scalar UniversityNetwork.CCTVMonitoring.networkLayer.arp 	sentReply:count 	0
attr title  "ARP replies sent, count"
scalar UniversityNetwork.CCTVMonitoring.networkLayer.arp 	sentReq:count 	0
attr title  "ARP request sent, count"
scalar UniversityNetwork.CCTVMonitoring.networkLayer.arp 	failedARPResolution:count 	0
attr title  "ARP failed resolutions, count"
scalar UniversityNetwork.CCTVMonitoring.networkLayer.arp 	completedARPResolution:count 	0
attr title  "ARP completed resolutions, count"
scalar UniversityNetwork.CCTVMonitoring.lo0.lo 	rcvdPkFromHL:count 	0
attr interpolationmode  none
attr source  packetReceivedFromUpper
attr title  "packets received from higher layer, count"
scalar UniversityNetwork.CCTVMonitoring.lo0.lo 	rcvdPkFromHL:sum(packetBytes) 	0
attr interpolationmode  none
attr source  packetReceivedFromUpper
attr title  "packets received from higher layer, sum(packetBytes)"
scalar UniversityNetwork.CCTVMonitoring.lo0.lo 	passedUpPk:count 	0
attr interpolationmode  none
attr source  packetSentToUpper
attr title  "packets passed to higher layer, count"
scalar UniversityNetwork.CCTVMonitoring.lo0.lo 	passedUpPk:sum(packetBytes) 	0
attr interpolationmode  none
attr source  packetSentToUpper
attr title  "packets passed to higher layer, sum(packetBytes)"
scalar UniversityNetwork.CCTVMonitoring.lo0.lo 	droppedPkBitError:count 	0
attr interpolationmode  none
attr source  dropPkBitError
attr title  "packets dropped/bit error, count"
scalar UniversityNetwork.CCTVMonitoring.lo0.lo 	droppedPkBitError:sum(packetBytes) 	0
attr interpolationmode  none
attr source  dropPkBitError
attr title  "packets dropped/bit error, sum(packetBytes)"
scalar UniversityNetwork.CCTVMonitoring.ppp[0].inputHook[0] 	duration 	300
scalar UniversityNetwork.CCTVMonitoring.ppp[0].inputHook[0] 	"total packets" 	0
scalar UniversityNetwork.CCTVMonitoring.ppp[0].inputHook[0] 	"total bits" 	0
scalar UniversityNetwork.CCTVMonitoring.ppp[0].inputHook[0] 	"avg throughput (bit/s)" 	0
scalar UniversityNetwork.CCTVMonitoring.ppp[0].inputHook[0] 	"avg packets/s" 	0
statistic UniversityNetwork.CCTVMonitoring.ppp[0].queue 	queueingTime:histogram
field count 0
field mean -nan
field stddev -nan
field sum 0
field sqrsum 0
field min -nan
field max -nan
attr interpolationmode  none
attr title  "queueing time, histogram"
bin	-INF	0
bin	-0.5	0
bin	-0.46666666666667	0
bin	-0.43333333333333	0
bin	-0.4	0
bin	-0.36666666666667	0
bin	-0.33333333333333	0
bin	-0.3	0
bin	-0.26666666666667	0
bin	-0.23333333333333	0
bin	-0.2	0
bin	-0.16666666666667	0
bin	-0.13333333333333	0
bin	-0.1	0
bin	-0.066666666666667	0
bin	-0.033333333333333	0
bin	0	0
bin	0.033333333333333	0
bin	0.066666666666667	0
bin	0.1	0
bin	0.13333333333333	0
bin	0.16666666666667	0
bin	0.2	0
bin	0.23333333333333	0
bin	0.26666666666667	0
bin	0.3	0
bin	0.33333333333333	0
bin	0.36666666666667	0
bin	0.4	0
bin	0.43333333333333	0
bin	0.46666666666667	0
bin	0.5	0
scalar UniversityNetwork.CCTVMonitoring.ppp[0].queue 	dropPk:count 	0
attr interpolationmode  none
attr source  dropPkByQueue
attr title  "dropped packets, count"
scalar UniversityNetwork.CCTVMonitoring.ppp[0].queue 	dropPk:sum(packetBytes) 	0
attr interpolationmode  none
attr source  dropPkByQueue
attr title  "dropped packets, sum(packetBytes)"
scalar UniversityNetwork.CCTVMonitoring.ppp[0].queue 	queueLength:max 	0
attr interpolationmode  sample-hold
attr title  "queue length, max"
scalar UniversityNetwork.CCTVMonitoring.ppp[0].queue 	queueLength:timeavg 	0
attr interpolationmode  sample-hold
attr title  "queue length, timeavg"
scalar UniversityNetwork.CCTVMonitoring.ppp[0].queue 	rcvdPk:count 	0
attr interpolationmode  none
attr title  "received packets, count"
scalar UniversityNetwork.CCTVMonitoring.ppp[0].queue 	rcvdPk:sum(packetBytes) 	0
attr interpolationmode  none
attr title  "received packets, sum(packetBytes)"
scalar UniversityNetwork.CCTVMonitoring.ppp[0].ppp 	rcvdPkFromHL:count 	0
attr interpolationmode  none
attr source  packetReceivedFromUpper
attr title  "packets received from higher layer, count"
scalar UniversityNetwork.CCTVMonitoring.ppp[0].ppp 	rcvdPkFromHL:sum(packetBytes) 	0
attr interpolationmode  none
attr source  packetReceivedFromUpper
attr title  "packets received from higher layer, sum(packetBytes)"
scalar UniversityNetwork.CCTVMonitoring.ppp[0].ppp 	passedUpPk:count 	0
attr interpolationmode  none
attr source  packetSentToUpper
attr title  "packets passed to higher layer, count"
scalar UniversityNetwork.CCTVMonitoring.ppp[0].ppp 	passedUpPk:sum(packetBytes) 	0
attr interpolationmode  none
attr source  packetSentToUpper
attr title  "packets passed to higher layer, sum(packetBytes)"
scalar UniversityNetwork.CCTVMonitoring.ppp[0].ppp 	txPk:count 	0
attr interpolationmode  none
attr source  packetSentToLower
attr title  "packets transmitted, count"
scalar UniversityNetwork.CCTVMonitoring.ppp[0].ppp 	txPk:sum(packetBytes) 	0
attr interpolationmode  none
attr source  packetSentToLower
attr title  "packets transmitted, sum(packetBytes)"
scalar UniversityNetwork.CCTVMonitoring.ppp[0].ppp 	droppedPkBitError:count 	0
attr interpolationmode  none
attr source  dropPkBitError
attr title  "packets dropped/bit error, count"
scalar UniversityNetwork.CCTVMonitoring.ppp[0].ppp 	droppedPkBitError:sum(packetBytes) 	0
attr interpolationmode  none
attr source  dropPkBitError
attr title  "packets dropped/bit error, sum(packetBytes)"
scalar UniversityNetwork.CCTVMonitoring.ppp[0].ppp 	droppedPkIfaceDown:count 	0
attr interpolationmode  none
attr source  dropPkIfaceDown
attr title  "packets dropped/interface down, count"
scalar UniversityNetwork.CCTVMonitoring.ppp[0].ppp 	droppedPkIfaceDown:sum(packetBytes) 	0
attr interpolationmode  none
attr source  dropPkIfaceDown
attr title  "packets dropped/interface down, sum(packetBytes)"
scalar UniversityNetwork.CCTVMonitoring.ppp[0].ppp 	rxPkOk:count 	0
attr interpolationmode  none
attr source  rxPkOk
attr title  "packets received OK, count"
scalar UniversityNetwork.CCTVMonitoring.ppp[0].ppp 	rxPkOk:sum(packetBytes) 	0
attr interpolationmode  none
attr source  rxPkOk
attr title  "packets received OK, sum(packetBytes)"
scalar UniversityNetwork.CCTVMonitoring.ppp[0].ppp 	txState:timeavg 	0
attr interpolationmode  sample-hold
attr title  "tx state, timeavg"
scalar UniversityNetwork.main.networkLayer.arp 	initiatedARPResolution:count 	0
attr title  "ARP initiated resolutions, count"
scalar UniversityNetwork.main.networkLayer.arp 	sentReply:count 	0
attr title  "ARP replies sent, count"
scalar UniversityNetwork.main.networkLayer.arp 	sentReq:count 	0
attr title  "ARP request sent, count"
scalar UniversityNetwork.main.networkLayer.arp 	failedARPResolution:count 	0
attr title  "ARP failed resolutions, count"
scalar UniversityNetwork.main.networkLayer.arp 	completedARPResolution:count 	0
attr title  "ARP completed resolutions, count"
scalar UniversityNetwork.main.lo0.lo 	rcvdPkFromHL:count 	0
attr interpolationmode  none
attr source  packetReceivedFromUpper
attr title  "packets received from higher layer, count"
scalar UniversityNetwork.main.lo0.lo 	rcvdPkFromHL:sum(packetBytes) 	0
attr interpolationmode  none
attr source  packetReceivedFromUpper
attr title  "packets received from higher layer, sum(packetBytes)"
scalar UniversityNetwork.main.lo0.lo 	passedUpPk:count 	0
attr interpolationmode  none
attr source  packetSentToUpper
attr title  "packets passed to higher layer, count"
scalar UniversityNetwork.main.lo0.lo 	passedUpPk:sum(packetBytes) 	0
attr interpolationmode  none
attr source  packetSentToUpper
attr title  "packets passed to higher layer, sum(packetBytes)"
scalar UniversityNetwork.main.lo0.lo 	droppedPkBitError:count 	0
attr interpolationmode  none
attr source  dropPkBitError
attr title  "packets dropped/bit error, count"
scalar UniversityNetwork.main.lo0.lo 	droppedPkBitError:sum(packetBytes) 	0
attr interpolationmode  none
attr source  dropPkBitError
attr title  "packets dropped/bit error, sum(packetBytes)"
scalar UniversityNetwork.main.ppp[0].inputHook[0] 	duration 	300
scalar UniversityNetwork.main.ppp[0].inputHook[0] 	"total packets" 	271446
scalar UniversityNetwork.main.ppp[0].inputHook[0] 	"total bits" 	1589599352
scalar UniversityNetwork.main.ppp[0].inputHook[0] 	"avg throughput (bit/s)" 	5298664.5066667
scalar UniversityNetwork.main.ppp[0].inputHook[0] 	"avg packets/s" 	904.82
statistic UniversityNetwork.main.ppp[0].queue 	queueingTime:histogram
field count 275984
field mean 0.0020491958827489
field stddev 0.0061134418108234
field sum 565.54527650457
field sqrsum 11.473548824931
field min 0
field max 0.040184407727
attr interpolationmode  none
attr title  "queueing time, histogram"
bin	-INF	0
bin	-0.0005807600775	0
bin	-0.0005033254005	0
bin	-0.0004258907235	0
bin	-0.0003484560465	0
bin	-0.0002710213695	0
bin	-0.0001935866925	0
bin	-0.0001161520155	0
bin	-3.87173385e-05	160016
bin	3.87173385e-05	5107
bin	0.0001161520155	4735
bin	0.0001935866925	2956
bin	0.0002710213695	2801
bin	0.0003484560465	2098
bin	0.0004258907235	2421
bin	0.0005033254005	3073
bin	0.0005807600775	3837
bin	0.0006581947545	1939
bin	0.0007356294315	2026
bin	0.0008130641085	13201
bin	0.0008904987855	3466
bin	0.0009679334625	3467
bin	0.0010453681395	2758
bin	0.0011228028165	1849
bin	0.0012002374935	1660
bin	0.0012776721705	1329
bin	0.0013551068475	1213
bin	0.0014325415245	1715
bin	0.0015099762015	1451
bin	0.0015874108785	1523
bin	0.0016648455555	1184
bin	0.0017422802325	50159
scalar UniversityNetwork.main.ppp[0].queue 	dropPk:count 	1623
attr interpolationmode  none
attr source  dropPkByQueue
attr title  "dropped packets, count"
scalar UniversityNetwork.main.ppp[0].queue 	dropPk:sum(packetBytes) 	2414588
attr interpolationmode  none
attr source  dropPkByQueue
attr title  "dropped packets, sum(packetBytes)"
scalar UniversityNetwork.main.ppp[0].queue 	queueLength:max 	40
attr interpolationmode  sample-hold
attr title  "queue length, max"
scalar UniversityNetwork.main.ppp[0].queue 	queueLength:timeavg 	1.8851509216828
attr interpolationmode  sample-hold
attr title  "queue length, timeavg"
scalar UniversityNetwork.main.ppp[0].queue 	rcvdPk:count 	277607
attr interpolationmode  none
attr title  "received packets, count"
scalar UniversityNetwork.main.ppp[0].queue 	rcvdPk:sum(packetBytes) 	234789941
attr interpolationmode  none
attr title  "received packets, sum(packetBytes)"
scalar UniversityNetwork.main.ppp[0].ppp 	rcvdPkFromHL:count 	275984
attr interpolationmode  none
attr source  packetReceivedFromUpper
attr title  "packets received from higher layer, count"
scalar UniversityNetwork.main.ppp[0].ppp 	rcvdPkFromHL:sum(packetBytes) 	232375353
attr interpolationmode  none
attr source  packetReceivedFromUpper
attr title  "packets received from higher layer, sum(packetBytes)"
scalar UniversityNetwork.main.ppp[0].ppp 	passedUpPk:count 	271446
attr interpolationmode  none
attr source  packetSentToUpper
attr title  "packets passed to higher layer, count"
scalar UniversityNetwork.main.ppp[0].ppp 	passedUpPk:sum(packetBytes) 	198699919
attr interpolationmode  none
attr source  packetSentToUpper
attr title  "packets passed to higher layer, sum(packetBytes)"
scalar UniversityNetwork.main.ppp[0].ppp 	txPk:count 	275984
attr interpolationmode  none
attr source  packetSentToLower
attr title  "packets transmitted, count"
scalar UniversityNetwork.main.ppp[0].ppp 	txPk:sum(packetBytes) 	234307241
attr interpolationmode  none
attr source  packetSentToLower
attr title  "packets transmitted, sum(packetBytes)"
scalar UniversityNetwork.main.ppp[0].ppp 	droppedPkBitError:count 	0
attr interpolationmode  none
attr source  dropPkBitError
attr title  "packets dropped/bit error, count"
scalar UniversityNetwork.main.ppp[0].ppp 	droppedPkBitError:sum(packetBytes) 	0
attr interpolationmode  none
attr source  dropPkBitError
attr title  "packets dropped/bit error, sum(packetBytes)"
scalar UniversityNetwork.main.ppp[0].ppp 	droppedPkIfaceDown:count 	0
attr interpolationmode  none
attr source  dropPkIfaceDown
attr title  "packets dropped/interface down, count"
scalar UniversityNetwork.main.ppp[0].ppp 	droppedPkIfaceDown:sum(packetBytes) 	0
attr interpolationmode  none
attr source  dropPkIfaceDown
attr title  "packets dropped/interface down, sum(packetBytes)"
scalar UniversityNetwork.main.ppp[0].ppp 	rxPkOk:count 	271446
attr interpolationmode  none
attr source  rxPkOk
attr title  "packets received OK, count"
scalar UniversityNetwork.main.ppp[0].ppp 	rxPkOk:sum(packetBytes) 	200600041
attr interpolationmode  none
attr source  rxPkOk
attr title  "packets received OK, sum(packetBytes)"
scalar UniversityNetwork.main.ppp[0].ppp 	txState:timeavg 	0.52068275730421
attr interpolationmode  sample-hold
attr title  "tx state, timeavg"
scalar UniversityNetwork.main.ppp[1].inputHook[0] 	duration 	300
scalar UniversityNetwork.main.ppp[1].inputHook[0] 	"total packets" 	0
scalar UniversityNetwork.main.ppp[1].inputHook[0] 	"total bits" 	0
scalar UniversityNetwork.main.ppp[1].inputHook[0] 	"avg throughput (bit/s)" 	0
scalar UniversityNetwork.main.ppp[1].inputHook[0] 	"avg packets/s" 	0
statistic UniversityNetwork.main.ppp[1].queue 	queueingTime:histogram
field count 0
field mean -nan
field stddev -nan
field sum 0
field sqrsum 0
field min -nan
field max -nan
attr interpolationmode  none
attr title  "queueing time, histogram"
bin	-INF	0
bin	-0.5	0
bin	-0.46666666666667	0
bin	-0.43333333333333	0
bin	-0.4	0
bin	-0.36666666666667	0
bin	-0.33333333333333	0
bin	-0.3	0
bin	-0.26666666666667	0
bin	-0.23333333333333	0
bin	-0.2	0
bin	-0.16666666666667	0
bin	-0.13333333333333	0
bin	-0.1	0
bin	-0.066666666666667	0
bin	-0.033333333333333	0
bin	0	0
bin	0.033333333333333	0
bin	0.066666666666667	0
bin	0.1	0
bin	0.13333333333333	0
bin	0.16666666666667	0
bin	0.2	0
bin	0.23333333333333	0
bin	0.26666666666667	0
bin	0.3	0
bin	0.33333333333333	0
bin	0.36666666666667	0
bin	0.4	0
bin	0.43333333333333	0
bin	0.46666666666667	0
bin	0.5	0
scalar UniversityNetwork.main.ppp[1].queue 	dropPk:count 	0
attr interpolationmode  none
attr source  dropPkByQueue
attr title  "dropped packets, count"
scalar UniversityNetwork.main.ppp[1].queue 	dropPk:sum(packetBytes) 	0
attr interpolationmode  none
attr source  dropPkByQueue
attr title  "dropped packets, sum(packetBytes)"
scalar UniversityNetwork.main.ppp[1].queue 	queueLength:max 	0
attr interpolationmode  sample-hold
attr title  "queue length, max"
scalar UniversityNetwork.main.ppp[1].queue 	queueLength:timeavg 	0
attr interpolationmode  sample-hold
attr title  "queue length, timeavg"
scalar UniversityNetwork.main.ppp[1].queue 	rcvdPk:count 	0
attr interpolationmode  none
attr title  "received packets, count"
scalar UniversityNetwork.main.ppp[1].queue 	rcvdPk:sum(packetBytes) 	0
attr interpolationmode  none
attr title  "received packets, sum(packetBytes)"
scalar UniversityNetwork.main.ppp[1].ppp 	rcvdPkFromHL:count 	0
attr interpolationmode  none
attr source  packetReceivedFromUpper
attr title  "packets received from higher layer, count"
scalar UniversityNetwork.main.ppp[1].ppp 	rcvdPkFromHL:sum(packetBytes) 	0
attr interpolationmode  none
attr source  packetReceivedFromUpper
attr title  "packets received from higher layer, sum(packetBytes)"
scalar UniversityNetwork.main.ppp[1].ppp 	passedUpPk:count 	0
attr interpolationmode  none
attr source  packetSentToUpper
attr title  "packets passed to higher layer, count"
scalar UniversityNetwork.main.ppp[1].ppp 	passedUpPk:sum(packetBytes) 	0
attr interpolationmode  none
attr source  packetSentToUpper
attr title  "packets passed to higher layer, sum(packetBytes)"
scalar UniversityNetwork.main.ppp[1].ppp 	txPk:count 	0
attr interpolationmode  none
attr source  packetSentToLower
attr title  "packets transmitted, count"
scalar UniversityNetwork.main.ppp[1].ppp 	txPk:sum(packetBytes) 	0
attr interpolationmode  none
attr source  packetSentToLower
attr title  "packets transmitted, sum(packetBytes)"
scalar UniversityNetwork.main.ppp[1].ppp 	droppedPkBitError:count 	0
attr interpolationmode  none
attr source  dropPkBitError
attr title  "packets dropped/bit error, count"
scalar UniversityNetwork.main.ppp[1].ppp 	droppedPkBitError:sum(packetBytes) 	0
attr interpolationmode  none
attr source  dropPkBitError
attr title  "packets dropped/bit error, sum(packetBytes)"
scalar UniversityNetwork.main.ppp[1].ppp 	droppedPkIfaceDown:count 	0
attr interpolationmode  none
attr source  dropPkIfaceDown
attr title  "packets dropped/interface down, count"
scalar UniversityNetwork.main.ppp[1].ppp 	droppedPkIfaceDown:sum(packetBytes) 	0
attr interpolationmode  none
attr source  dropPkIfaceDown
attr title  "packets dropped/interface down, sum(packetBytes)"
scalar UniversityNetwork.main.ppp[1].ppp 	rxPkOk:count 	0
attr interpolationmode  none
attr source  rxPkOk
attr title  "packets received OK, count"
scalar UniversityNetwork.main.ppp[1].ppp 	rxPkOk:sum(packetBytes) 	0
attr interpolationmode  none
attr source  rxPkOk
attr title  "packets received OK, sum(packetBytes)"
scalar UniversityNetwork.main.ppp[1].ppp 	txState:timeavg 	0
attr interpolationmode  sample-hold
attr title  "tx state, timeavg"
scalar UniversityNetwork.main.ppp[2].inputHook[0] 	duration 	300
scalar UniversityNetwork.main.ppp[2].inputHook[0] 	"total packets" 	270108
scalar UniversityNetwork.main.ppp[2].inputHook[0] 	"total bits" 	1792650952
scalar UniversityNetwork.main.ppp[2].inputHook[0] 	"avg throughput (bit/s)" 	5975503.1733333
scalar UniversityNetwork.main.ppp[2].inputHook[0] 	"avg packets/s" 	900.36
statistic UniversityNetwork.main.ppp[2].queue 	queueingTime:histogram
field count 263947
field mean 1.2020260889176e-05
field stddev 3.0293756525833e-05
field sum 3.1727118009154
field sqrsum 0.00028036315183608
field min 0
field max 8.9226667e-05
attr interpolationmode  none
attr title  "queueing time, histogram"
bin	-INF	0
bin	-4.46133335e-05	0
bin	-3.8664889033333e-05	0
bin	-3.2716444566667e-05	0
bin	-2.67680001e-05	0
bin	-2.0819555633333e-05	0
bin	-1.4871111166667e-05	0
bin	-8.9226667e-06	0
bin	-2.9742222333333e-06	227707
bin	2.9742222333333e-06	67
bin	8.9226667e-06	40
bin	1.4871111166667e-05	64
bin	2.0819555633333e-05	36
bin	2.67680001e-05	62
bin	3.2716444566667e-05	114
bin	3.8664889033333e-05	13
bin	4.46133335e-05	24
bin	5.0561777966667e-05	31
bin	5.6510222433333e-05	1135
bin	6.24586669e-05	12
bin	6.8407111366667e-05	16
bin	7.4355555833333e-05	14
bin	8.03040003e-05	139
bin	8.6252444766667e-05	34473
bin	9.2200889233333e-05	0
bin	9.81493337e-05	0
bin	0.00010409777816667	0
bin	0.00011004622263333	0
bin	0.0001159946671	0
bin	0.00012194311156667	0
bin	0.00012789155603333	0
bin	0.0001338400005	0
scalar UniversityNetwork.main.ppp[2].queue 	dropPk:count 	0
attr interpolationmode  none
attr source  dropPkByQueue
attr title  "dropped packets, count"
scalar UniversityNetwork.main.ppp[2].queue 	dropPk:sum(packetBytes) 	0
attr interpolationmode  none
attr source  dropPkByQueue
attr title  "dropped packets, sum(packetBytes)"
scalar UniversityNetwork.main.ppp[2].queue 	queueLength:max 	3
attr interpolationmode  sample-hold
attr title  "queue length, max"
scalar UniversityNetwork.main.ppp[2].queue 	queueLength:timeavg 	0.010575706003052
attr interpolationmode  sample-hold
attr title  "queue length, timeavg"
scalar UniversityNetwork.main.ppp[2].queue 	rcvdPk:count 	263947
attr interpolationmode  none
attr title  "received packets, count"
scalar UniversityNetwork.main.ppp[2].queue 	rcvdPk:sum(packetBytes) 	187991347
attr interpolationmode  none
attr title  "received packets, sum(packetBytes)"
scalar UniversityNetwork.main.ppp[2].ppp 	rcvdPkFromHL:count 	263947
attr interpolationmode  none
attr source  packetReceivedFromUpper
attr title  "packets received from higher layer, count"
scalar UniversityNetwork.main.ppp[2].ppp 	rcvdPkFromHL:sum(packetBytes) 	187991347
attr interpolationmode  none
attr source  packetReceivedFromUpper
attr title  "packets received from higher layer, sum(packetBytes)"
scalar UniversityNetwork.main.ppp[2].ppp 	passedUpPk:count 	270108
attr interpolationmode  none
attr source  packetSentToUpper
attr title  "packets passed to higher layer, count"
scalar UniversityNetwork.main.ppp[2].ppp 	passedUpPk:sum(packetBytes) 	224081369
attr interpolationmode  none
attr source  packetSentToUpper
attr title  "packets passed to higher layer, sum(packetBytes)"
scalar UniversityNetwork.main.ppp[2].ppp 	txPk:count 	263947
attr interpolationmode  none
attr source  packetSentToLower
attr title  "packets transmitted, count"
scalar UniversityNetwork.main.ppp[2].ppp 	txPk:sum(packetBytes) 	189838976
attr interpolationmode  none
attr source  packetSentToLower
attr title  "packets transmitted, sum(packetBytes)"
scalar UniversityNetwork.main.ppp[2].ppp 	droppedPkBitError:count 	0
attr interpolationmode  none
attr source  dropPkBitError
attr title  "packets dropped/bit error, count"
scalar UniversityNetwork.main.ppp[2].ppp 	droppedPkBitError:sum(packetBytes) 	0
attr interpolationmode  none
attr source  dropPkBitError
attr title  "packets dropped/bit error, sum(packetBytes)"
scalar UniversityNetwork.main.ppp[2].ppp 	droppedPkIfaceDown:count 	0
attr interpolationmode  none
attr source  dropPkIfaceDown
attr title  "packets dropped/interface down, count"
scalar UniversityNetwork.main.ppp[2].ppp 	droppedPkIfaceDown:sum(packetBytes) 	0
attr interpolationmode  none
attr source  dropPkIfaceDown
attr title  "packets dropped/interface down, sum(packetBytes)"
scalar UniversityNetwork.main.ppp[2].ppp 	rxPkOk:count 	270108
attr interpolationmode  none
attr source  rxPkOk
attr title  "packets received OK, count"
scalar UniversityNetwork.main.ppp[2].ppp 	rxPkOk:sum(packetBytes) 	225972125
attr interpolationmode  none
attr source  rxPkOk
attr title  "packets received OK, sum(packetBytes)"
scalar UniversityNetwork.main.ppp[2].ppp 	txState:timeavg 	0.050623726933253
attr interpolationmode  sample-hold
attr title  "tx state, timeavg"
scalar UniversityNetwork.main.ppp[3].inputHook[0] 	duration 	300
scalar UniversityNetwork.main.ppp[3].inputHook[0] 	"total packets" 	7499
scalar UniversityNetwork.main.ppp[3].inputHook[0] 	"total bits" 	85668576
scalar UniversityNetwork.main.ppp[3].inputHook[0] 	"avg throughput (bit/s)" 	285561.92
scalar UniversityNetwork.main.ppp[3].inputHook[0] 	"avg packets/s" 	24.996666666667
statistic UniversityNetwork.main.ppp[3].queue 	queueingTime:histogram
field count 7499
field mean 0
field stddev 0
field sum 0
field sqrsum 0
field min 0
field max 0
attr interpolationmode  none
attr title  "queueing time, histogram"
bin	-INF	0
bin	-0.5	0
bin	-0.46666666666667	0
bin	-0.43333333333333	0
bin	-0.4	0
bin	-0.36666666666667	0
bin	-0.33333333333333	0
bin	-0.3	0
bin	-0.26666666666667	0
bin	-0.23333333333333	0
bin	-0.2	0
bin	-0.16666666666667	0
bin	-0.13333333333333	0
bin	-0.1	0
bin	-0.066666666666667	0
bin	-0.033333333333333	0
bin	0	7499
bin	0.033333333333333	0
bin	0.066666666666667	0
bin	0.1	0
bin	0.13333333333333	0
bin	0.16666666666667	0
bin	0.2	0
bin	0.23333333333333	0
bin	0.26666666666667	0
bin	0.3	0
bin	0.33333333333333	0
bin	0.36666666666667	0
bin	0.4	0
bin	0.43333333333333	0
bin	0.46666666666667	0
bin	0.5	0
scalar UniversityNetwork.main.ppp[3].queue 	dropPk:count 	0
attr interpolationmode  none
attr source  dropPkByQueue
attr title  "dropped packets, count"
scalar UniversityNetwork.main.ppp[3].queue 	dropPk:sum(packetBytes) 	0
attr interpolationmode  none
attr source  dropPkByQueue
attr title  "dropped packets, sum(packetBytes)"
scalar UniversityNetwork.main.ppp[3].queue 	queueLength:max 	0
attr interpolationmode  sample-hold
attr title  "queue length, max"
scalar UniversityNetwork.main.ppp[3].queue 	queueLength:timeavg 	0
attr interpolationmode  sample-hold
attr title  "queue length, timeavg"
scalar UniversityNetwork.main.ppp[3].queue 	rcvdPk:count 	7499
attr interpolationmode  none
attr title  "received packets, count"
scalar UniversityNetwork.main.ppp[3].queue 	rcvdPk:sum(packetBytes) 	10708572
attr interpolationmode  none
attr title  "received packets, sum(packetBytes)"
scalar UniversityNetwork.main.ppp[3].ppp 	rcvdPkFromHL:count 	7499
attr interpolationmode  none
attr source  packetReceivedFromUpper
attr title  "packets received from higher layer, count"
scalar UniversityNetwork.main.ppp[3].ppp 	rcvdPkFromHL:sum(packetBytes) 	10708572
attr interpolationmode  none
attr source  packetReceivedFromUpper
attr title  "packets received from higher layer, sum(packetBytes)"
scalar UniversityNetwork.main.ppp[3].ppp 	passedUpPk:count 	7499
attr interpolationmode  none
attr source  packetSentToUpper
attr title  "packets passed to higher layer, count"
scalar UniversityNetwork.main.ppp[3].ppp 	passedUpPk:sum(packetBytes) 	10708572
attr interpolationmode  none
attr source  packetSentToUpper
attr title  "packets passed to higher layer, sum(packetBytes)"
scalar UniversityNetwork.main.ppp[3].ppp 	txPk:count 	7499
attr interpolationmode  none
attr source  packetSentToLower
attr title  "packets transmitted, count"
scalar UniversityNetwork.main.ppp[3].ppp 	txPk:sum(packetBytes) 	10761065
attr interpolationmode  none
attr source  packetSentToLower
attr title  "packets transmitted, sum(packetBytes)"
scalar UniversityNetwork.main.ppp[3].ppp 	droppedPkBitError:count 	0
attr interpolationmode  none
attr source  dropPkBitError
attr title  "packets dropped/bit error, count"
scalar UniversityNetwork.main.ppp[3].ppp 	droppedPkBitError:sum(packetBytes) 	0
attr interpolationmode  none
attr source  dropPkBitError
attr title  "packets dropped/bit error, sum(packetBytes)"
scalar UniversityNetwork.main.ppp[3].ppp 	droppedPkIfaceDown:count 	0
attr interpolationmode  none
attr source  dropPkIfaceDown
attr title  "packets dropped/interface down, count"
scalar UniversityNetwork.main.ppp[3].ppp 	droppedPkIfaceDown:sum(packetBytes) 	0
attr interpolationmode  none
attr source  dropPkIfaceDown
attr title  "packets dropped/interface down, sum(packetBytes)"
scalar UniversityNetwork.main.ppp[3].ppp 	rxPkOk:count 	7499
attr interpolationmode  none
attr source  rxPkOk
attr title  "packets received OK, count"
scalar UniversityNetwork.main.ppp[3].ppp 	rxPkOk:sum(packetBytes) 	10761065
attr interpolationmode  none
attr source  rxPkOk
attr title  "packets received OK, sum(packetBytes)"
scalar UniversityNetwork.main.ppp[3].ppp 	txState:timeavg 	0.0028696173333332
attr interpolationmode  sample-hold
attr title  "tx state, timeavg"
scalar UniversityNetwork.remote.networkLayer.arp 	initiatedARPResolution:count 	16
attr title  "ARP initiated resolutions, count"
scalar UniversityNetwork.remote.networkLayer.arp 	sentReply:count 	93
attr title  "ARP replies sent, count"
scalar UniversityNetwork.remote.networkLayer.arp 	sentReq:count 	16
attr title  "ARP request sent, count"
scalar UniversityNetwork.remote.networkLayer.arp 	failedARPResolution:count 	0
attr title  "ARP failed resolutions, count"
scalar UniversityNetwork.remote.networkLayer.arp 	completedARPResolution:count 	107
attr title  "ARP completed resolutions, count"
scalar UniversityNetwork.remote.lo0.lo 	rcvdPkFromHL:count 	0
attr interpolationmode  none
attr source  packetReceivedFromUpper
attr title  "packets received from higher layer, count"
scalar UniversityNetwork.remote.lo0.lo 	rcvdPkFromHL:sum(packetBytes) 	0
attr interpolationmode  none
attr source  packetReceivedFromUpper
attr title  "packets received from higher layer, sum(packetBytes)"
scalar UniversityNetwork.remote.lo0.lo 	passedUpPk:count 	0
attr interpolationmode  none
attr source  packetSentToUpper
attr title  "packets passed to higher layer, count"
scalar UniversityNetwork.remote.lo0.lo 	passedUpPk:sum(packetBytes) 	0
attr interpolationmode  none
attr source  packetSentToUpper
attr title  "packets passed to higher layer, sum(packetBytes)"
scalar UniversityNetwork.remote.lo0.lo 	droppedPkBitError:count 	0
attr interpolationmode  none
attr source  dropPkBitError
attr title  "packets dropped/bit error, count"
scalar UniversityNetwork.remote.lo0.lo 	droppedPkBitError:sum(packetBytes) 	0
attr interpolationmode  none
attr source  dropPkBitError
attr title  "packets dropped/bit error, sum(packetBytes)"
scalar UniversityNetwork.remote.eth[0].mac 	"simulated time" 	300
scalar UniversityNetwork.remote.eth[0].mac 	full-duplex 	1
scalar UniversityNetwork.remote.eth[0].mac 	"frames/sec sent" 	920.28
scalar UniversityNetwork.remote.eth[0].mac 	"frames/sec rcvd" 	905.21666666667
scalar UniversityNetwork.remote.eth[0].mac 	"bits/sec sent" 	6348688.8
scalar UniversityNetwork.remote.eth[0].mac 	"bits/sec rcvd" 	5390106.64
scalar UniversityNetwork.remote.eth[0].mac 	"rx channel idle (%)" 	94.551959493334
scalar UniversityNetwork.remote.eth[0].mac 	"rx channel utilization (%)" 	5.4480405066663
scalar UniversityNetwork.remote.eth[0].mac 	rxPkFromHL:count 	276084
attr interpolationmode  none
attr source  rxPkFromHL
attr title  "packet bytes from higher layer, count"
scalar UniversityNetwork.remote.eth[0].mac 	rxPkFromHL:sum(packetBytes) 	238075830
attr interpolationmode  none
attr source  rxPkFromHL
attr title  "packet bytes from higher layer, sum(packetBytes)"
scalar UniversityNetwork.remote.eth[0].mac 	rxPausePkUnits:count 	0
attr interpolationmode  none
attr title  "pause units received, count"
scalar UniversityNetwork.remote.eth[0].mac 	rxPausePkUnits:sum 	0
attr interpolationmode  none
attr title  "pause units received, sum"
scalar UniversityNetwork.remote.eth[0].mac 	txPausePkUnits:count 	0
attr interpolationmode  none
attr title  "pause units sent, count"
scalar UniversityNetwork.remote.eth[0].mac 	txPausePkUnits:sum 	0
attr interpolationmode  none
attr title  "pause units sent, sum"
scalar UniversityNetwork.remote.eth[0].mac 	txPk:count 	276084
attr interpolationmode  none
attr source  txPk
attr title  "packets transmitted, count"
scalar UniversityNetwork.remote.eth[0].mac 	txPk:sum(packetBytes) 	238075830
attr interpolationmode  none
attr source  txPk
attr title  "packets transmitted, sum(packetBytes)"
scalar UniversityNetwork.remote.eth[0].mac 	droppedPkNotForUs:count 	0
attr interpolationmode  none
attr source  dropPkNotForUs
attr title  "packets dropped/not for us, count"
scalar UniversityNetwork.remote.eth[0].mac 	droppedPkNotForUs:sum(packetBytes) 	0
attr interpolationmode  none
attr source  dropPkNotForUs
attr title  "packets dropped/not for us, sum(packetBytes)"
scalar UniversityNetwork.remote.eth[0].mac 	passedUpPk:count 	271565
attr interpolationmode  none
attr source  packetSentToUpper
attr title  "packets passed to higher layer, count"
scalar UniversityNetwork.remote.eth[0].mac 	passedUpPk:sum(packetBytes) 	202128999
attr interpolationmode  none
attr source  packetSentToUpper
attr title  "packets passed to higher layer, sum(packetBytes)"
scalar UniversityNetwork.remote.eth[0].mac 	droppedPkBitError:count 	0
attr interpolationmode  none
attr source  dropPkBitError
attr title  "packets dropped/bit error, count"
scalar UniversityNetwork.remote.eth[0].mac 	droppedPkBitError:sum(packetBytes) 	0
attr interpolationmode  none
attr source  dropPkBitError
attr title  "packets dropped/bit error, sum(packetBytes)"
scalar UniversityNetwork.remote.eth[0].mac 	droppedPkIfaceDown:count 	0
attr interpolationmode  none
attr source  dropPkIfaceDown
attr title  "packets dropped/interface down, count"
scalar UniversityNetwork.remote.eth[0].mac 	droppedPkIfaceDown:sum(packetBytes) 	0
attr interpolationmode  none
attr source  dropPkIfaceDown
attr title  "packets dropped/interface down, sum(packetBytes)"
scalar UniversityNetwork.remote.eth[0].mac 	rxPkOk:count 	271565
attr interpolationmode  none
attr source  rxPkOk
attr title  "packets received OK, count"
scalar UniversityNetwork.remote.eth[0].mac 	rxPkOk:sum(packetBytes) 	202128999
attr interpolationmode  none
attr source  rxPkOk
attr title  "packets received OK, sum(packetBytes)"
scalar UniversityNetwork.remote.eth[0].encap 	pauseSent:count 	0
attr title  "pause sent, count"
scalar UniversityNetwork.remote.eth[0].encap 	pauseSent:sum 	0
attr title  "pause sent, sum"
scalar UniversityNetwork.remote.eth[0].encap 	decapPk:count 	271565
attr interpolationmode  none
attr source  decapPk
attr title  "packets decapsulated, count"
scalar UniversityNetwork.remote.eth[0].encap 	decapPk:sum(packetBytes) 	198715075
attr interpolationmode  none
attr source  decapPk
attr title  "packets decapsulated, sum(packetBytes)"
scalar UniversityNetwork.remote.eth[0].encap 	encapPk:count 	276084
attr interpolationmode  none
attr source  encapPk
attr title  "packets encapsulated, count"
scalar UniversityNetwork.remote.eth[0].encap 	encapPk:sum(packetBytes) 	232369285
attr interpolationmode  none
attr source  encapPk
attr title  "packets encapsulated, sum(packetBytes)"
scalar UniversityNetwork.remote.ppp[0].inputHook[0] 	duration 	300
scalar UniversityNetwork.remote.ppp[0].inputHook[0] 	"total packets" 	275975
scalar UniversityNetwork.remote.ppp[0].inputHook[0] 	"total bits" 	1858929864
scalar UniversityNetwork.remote.ppp[0].inputHook[0] 	"avg throughput (bit/s)" 	6196432.88
scalar UniversityNetwork.remote.ppp[0].inputHook[0] 	"avg packets/s" 	919.91666666667
statistic UniversityNetwork.remote.ppp[0].queue 	queueingTime:histogram
field count 271458
field mean 0.00023347971257637
field stddev 0.00057402217352972
field sum 63.379935816557
field sqrsum 0.10424340585854
field min 0
field max 0.015824459716
attr interpolationmode  none
attr title  "queueing time, histogram"
bin	-INF	0
bin	-0.001508850702	0
bin	-0.0013076706084	0
bin	-0.0011064905148	0
bin	-0.0009053104212	0
bin	-0.0007041303276	0
bin	-0.000502950234	0
bin	-0.0003017701404	0
bin	-0.0001005900468	186807
bin	0.0001005900468	15997
bin	0.0003017701404	29272
bin	0.000502950234	6906
bin	0.0007041303276	13506
bin	0.0009053104212	3331
bin	0.0011064905148	5092
bin	0.0013076706084	1912
bin	0.001508850702	2196
bin	0.0017100307956	1192
bin	0.0019112108892	1026
bin	0.0021123909828	745
bin	0.0023135710764	572
bin	0.00251475117	481
bin	0.0027159312636	347
bin	0.0029171113572	291
bin	0.0031182914508	242
bin	0.0033194715444	232
bin	0.003520651638	156
bin	0.0037218317316	167
bin	0.0039230118252	125
bin	0.0041241919188	109
bin	0.0043253720124	91
bin	0.004526552106	663
scalar UniversityNetwork.remote.ppp[0].queue 	dropPk:count 	0
attr interpolationmode  none
attr source  dropPkByQueue
attr title  "dropped packets, count"
scalar UniversityNetwork.remote.ppp[0].queue 	dropPk:sum(packetBytes) 	0
attr interpolationmode  none
attr source  dropPkByQueue
attr title  "dropped packets, sum(packetBytes)"
scalar UniversityNetwork.remote.ppp[0].queue 	queueLength:max 	16
attr interpolationmode  sample-hold
attr title  "queue length, max"
scalar UniversityNetwork.remote.ppp[0].queue 	queueLength:timeavg 	0.21126645272183
attr interpolationmode  sample-hold
attr title  "queue length, timeavg"
scalar UniversityNetwork.remote.ppp[0].queue 	rcvdPk:count 	271458
attr interpolationmode  none
attr title  "received packets, count"
scalar UniversityNetwork.remote.ppp[0].queue 	rcvdPk:sum(packetBytes) 	198712079
attr interpolationmode  none
attr title  "received packets, sum(packetBytes)"
scalar UniversityNetwork.remote.ppp[0].ppp 	rcvdPkFromHL:count 	271458
attr interpolationmode  none
attr source  packetReceivedFromUpper
attr title  "packets received from higher layer, count"
scalar UniversityNetwork.remote.ppp[0].ppp 	rcvdPkFromHL:sum(packetBytes) 	198712079
attr interpolationmode  none
attr source  packetReceivedFromUpper
attr title  "packets received from higher layer, sum(packetBytes)"
scalar UniversityNetwork.remote.ppp[0].ppp 	passedUpPk:count 	275975
attr interpolationmode  none
attr source  packetSentToUpper
attr title  "packets passed to higher layer, count"
scalar UniversityNetwork.remote.ppp[0].ppp 	passedUpPk:sum(packetBytes) 	232366233
attr interpolationmode  none
attr source  packetSentToUpper
attr title  "packets passed to higher layer, sum(packetBytes)"
scalar UniversityNetwork.remote.ppp[0].ppp 	txPk:count 	271458
attr interpolationmode  none
attr source  packetSentToLower
attr title  "packets transmitted, count"
scalar UniversityNetwork.remote.ppp[0].ppp 	txPk:sum(packetBytes) 	200612285
attr interpolationmode  none
attr source  packetSentToLower
attr title  "packets transmitted, sum(packetBytes)"
scalar UniversityNetwork.remote.ppp[0].ppp 	droppedPkBitError:count 	0
attr interpolationmode  none
attr source  dropPkBitError
attr title  "packets dropped/bit error, count"
scalar UniversityNetwork.remote.ppp[0].ppp 	droppedPkBitError:sum(packetBytes) 	0
attr interpolationmode  none
attr source  dropPkBitError
attr title  "packets dropped/bit error, sum(packetBytes)"
scalar UniversityNetwork.remote.ppp[0].ppp 	droppedPkIfaceDown:count 	0
attr interpolationmode  none
attr source  dropPkIfaceDown
attr title  "packets dropped/interface down, count"
scalar UniversityNetwork.remote.ppp[0].ppp 	droppedPkIfaceDown:sum(packetBytes) 	0
attr interpolationmode  none
attr source  dropPkIfaceDown
attr title  "packets dropped/interface down, sum(packetBytes)"
scalar UniversityNetwork.remote.ppp[0].ppp 	rxPkOk:count 	275975
attr interpolationmode  none
attr source  rxPkOk
attr title  "packets received OK, count"
scalar UniversityNetwork.remote.ppp[0].ppp 	rxPkOk:sum(packetBytes) 	234298058
attr interpolationmode  none
attr source  rxPkOk
attr title  "packets received OK, sum(packetBytes)"
scalar UniversityNetwork.remote.ppp[0].ppp 	txState:timeavg 	0.44580507733303
attr interpolationmode  sample-hold
attr title  "tx state, timeavg"
scalar UniversityNetwork.remote.ppp[1].inputHook[0] 	duration 	300
scalar UniversityNetwork.remote.ppp[1].inputHook[0] 	"total packets" 	0
scalar UniversityNetwork.remote.ppp[1].inputHook[0] 	"total bits" 	0
scalar UniversityNetwork.remote.ppp[1].inputHook[0] 	"avg throughput (bit/s)" 	0
scalar UniversityNetwork.remote.ppp[1].inputHook[0] 	"avg packets/s" 	0
statistic UniversityNetwork.remote.ppp[1].queue 	queueingTime:histogram
field count 0
field mean -nan
field stddev -nan
field sum 0
field sqrsum 0
field min -nan
field max -nan
attr interpolationmode  none
attr title  "queueing time, histogram"
bin	-INF	0
bin	-0.5	0
bin	-0.46666666666667	0
bin	-0.43333333333333	0
bin	-0.4	0
bin	-0.36666666666667	0
bin	-0.33333333333333	0
bin	-0.3	0
bin	-0.26666666666667	0
bin	-0.23333333333333	0
bin	-0.2	0
bin	-0.16666666666667	0
bin	-0.13333333333333	0
bin	-0.1	0
bin	-0.066666666666667	0
bin	-0.033333333333333	0
bin	0	0
bin	0.033333333333333	0
bin	0.066666666666667	0
bin	0.1	0
bin	0.13333333333333	0
bin	0.16666666666667	0
bin	0.2	0
bin	0.23333333333333	0
bin	0.26666666666667	0
bin	0.3	0
bin	0.33333333333333	0
bin	0.36666666666667	0
bin	0.4	0
bin	0.43333333333333	0
bin	0.46666666666667	0
bin	0.5	0
scalar UniversityNetwork.remote.ppp[1].queue 	dropPk:count 	0
attr interpolationmode  none
attr source  dropPkByQueue
attr title  "dropped packets, count"
scalar UniversityNetwork.remote.ppp[1].queue 	dropPk:sum(packetBytes) 	0
attr interpolationmode  none
attr source  dropPkByQueue
attr title  "dropped packets, sum(packetBytes)"
scalar UniversityNetwork.remote.ppp[1].queue 	queueLength:max 	0
attr interpolationmode  sample-hold
attr title  "queue length, max"
scalar UniversityNetwork.remote.ppp[1].queue 	queueLength:timeavg 	0
attr interpolationmode  sample-hold
attr title  "queue length, timeavg"
scalar UniversityNetwork.remote.ppp[1].queue 	rcvdPk:count 	0
attr interpolationmode  none
attr title  "received packets, count"
scalar UniversityNetwork.remote.ppp[1].queue 	rcvdPk:sum(packetBytes) 	0
attr interpolationmode  none
attr title  "received packets, sum(packetBytes)"
scalar UniversityNetwork.remote.ppp[1].ppp 	rcvdPkFromHL:count 	0
attr interpolationmode  none
attr source  packetReceivedFromUpper
attr title  "packets received from higher layer, count"
scalar UniversityNetwork.remote.ppp[1].ppp 	rcvdPkFromHL:sum(packetBytes) 	0
attr interpolationmode  none
attr source  packetReceivedFromUpper
attr title  "packets received from higher layer, sum(packetBytes)"
scalar UniversityNetwork.remote.ppp[1].ppp 	passedUpPk:count 	0
attr interpolationmode  none
attr source  packetSentToUpper
attr title  "packets passed to higher layer, count"
scalar UniversityNetwork.remote.ppp[1].ppp 	passedUpPk:sum(packetBytes) 	0
attr interpolationmode  none
attr source  packetSentToUpper
attr title  "packets passed to higher layer, sum(packetBytes)"
scalar UniversityNetwork.remote.ppp[1].ppp 	txPk:count 	0
attr interpolationmode  none
attr source  packetSentToLower
attr title  "packets transmitted, count"
scalar UniversityNetwork.remote.ppp[1].ppp 	txPk:sum(packetBytes) 	0
attr interpolationmode  none
attr source  packetSentToLower
attr title  "packets transmitted, sum(packetBytes)"
scalar UniversityNetwork.remote.ppp[1].ppp 	droppedPkBitError:count 	0
attr interpolationmode  none
attr source  dropPkBitError
attr title  "packets dropped/bit error, count"
scalar UniversityNetwork.remote.ppp[1].ppp 	droppedPkBitError:sum(packetBytes) 	0
attr interpolationmode  none
attr source  dropPkBitError
attr title  "packets dropped/bit error, sum(packetBytes)"
scalar UniversityNetwork.remote.ppp[1].ppp 	droppedPkIfaceDown:count 	0
attr interpolationmode  none
attr source  dropPkIfaceDown
attr title  "packets dropped/interface down, count"
scalar UniversityNetwork.remote.ppp[1].ppp 	droppedPkIfaceDown:sum(packetBytes) 	0
attr interpolationmode  none
attr source  dropPkIfaceDown
attr title  "packets dropped/interface down, sum(packetBytes)"
scalar UniversityNetwork.remote.ppp[1].ppp 	rxPkOk:count 	0
attr interpolationmode  none
attr source  rxPkOk
attr title  "packets received OK, count"
scalar UniversityNetwork.remote.ppp[1].ppp 	rxPkOk:sum(packetBytes) 	0
attr interpolationmode  none
attr source  rxPkOk
attr title  "packets received OK, sum(packetBytes)"
scalar UniversityNetwork.remote.ppp[1].ppp 	txState:timeavg 	0
attr interpolationmode  sample-hold
attr title  "tx state, timeavg"
scalar UniversityNetwork.Internet.networkLayer.arp 	initiatedARPResolution:count 	0
attr title  "ARP initiated resolutions, count"
scalar UniversityNetwork.Internet.networkLayer.arp 	sentReply:count 	0
attr title  "ARP replies sent, count"
scalar UniversityNetwork.Internet.networkLayer.arp 	sentReq:count 	0
attr title  "ARP request sent, count"
scalar UniversityNetwork.Internet.networkLayer.arp 	failedARPResolution:count 	0
attr title  "ARP failed resolutions, count"
scalar UniversityNetwork.Internet.networkLayer.arp 	completedARPResolution:count 	0
attr title  "ARP completed resolutions, count"
scalar UniversityNetwork.Internet.lo0.lo 	rcvdPkFromHL:count 	0
attr interpolationmode  none
attr source  packetReceivedFromUpper
attr title  "packets received from higher layer, count"
scalar UniversityNetwork.Internet.lo0.lo 	rcvdPkFromHL:sum(packetBytes) 	0
attr interpolationmode  none
attr source  packetReceivedFromUpper
attr title  "packets received from higher layer, sum(packetBytes)"
scalar UniversityNetwork.Internet.lo0.lo 	passedUpPk:count 	0
attr interpolationmode  none
attr source  packetSentToUpper
attr title  "packets passed to higher layer, count"
scalar UniversityNetwork.Internet.lo0.lo 	passedUpPk:sum(packetBytes) 	0
attr interpolationmode  none
attr source  packetSentToUpper
attr title  "packets passed to higher layer, sum(packetBytes)"
scalar UniversityNetwork.Internet.lo0.lo 	droppedPkBitError:count 	0
attr interpolationmode  none
attr source  dropPkBitError
attr title  "packets dropped/bit error, count"
scalar UniversityNetwork.Internet.lo0.lo 	droppedPkBitError:sum(packetBytes) 	0
attr interpolationmode  none
attr source  dropPkBitError
attr title  "packets dropped/bit error, sum(packetBytes)"
scalar UniversityNetwork.Internet.ppp[0].inputHook[0] 	duration 	300
scalar UniversityNetwork.Internet.ppp[0].inputHook[0] 	"total packets" 	263936
scalar UniversityNetwork.Internet.ppp[0].inputHook[0] 	"total bits" 	1503833816
scalar UniversityNetwork.Internet.ppp[0].inputHook[0] 	"avg throughput (bit/s)" 	5012779.3866667
scalar UniversityNetwork.Internet.ppp[0].inputHook[0] 	"avg packets/s" 	879.78666666667
statistic UniversityNetwork.Internet.ppp[0].queue 	queueingTime:histogram
field count 270110
field mean 2.7127734279498e-05
field stddev 0.00020316408215084
field sum 7.3274723062351
field sqrsum 0.011347700721462
field min 0
field max 0.0048224
attr interpolationmode  none
attr title  "queueing time, histogram"
bin	-INF	0
bin	-6.028e-05	0
bin	-5.2242666666667e-05	0
bin	-4.4205333333333e-05	0
bin	-3.6168e-05	0
bin	-2.8130666666667e-05	0
bin	-2.0093333333333e-05	0
bin	-1.2056e-05	0
bin	-4.0186666666667e-06	237583
bin	4.0186666666667e-06	22
bin	1.2056e-05	38
bin	2.0093333333333e-05	38
bin	2.8130666666667e-05	22
bin	3.6168e-05	49
bin	4.4205333333333e-05	60
bin	5.2242666666667e-05	45
bin	6.028e-05	41
bin	6.8317333333333e-05	35
bin	7.6354666666667e-05	38
bin	8.4392e-05	82
bin	9.2429333333333e-05	35
bin	0.00010046666666667	27
bin	0.000108504	35
bin	0.00011654133333333	29187
bin	0.00012457866666667	17
bin	0.000132616	17
bin	0.00014065333333333	15
bin	0.00014869066666667	13
bin	0.000156728	14
bin	0.00016476533333333	35
bin	0.00017280266666667	16
bin	0.00018084	2646
scalar UniversityNetwork.Internet.ppp[0].queue 	dropPk:count 	11005
attr interpolationmode  none
attr source  dropPkByQueue
attr title  "dropped packets, count"
scalar UniversityNetwork.Internet.ppp[0].queue 	dropPk:sum(packetBytes) 	16485525
attr interpolationmode  none
attr source  dropPkByQueue
attr title  "dropped packets, sum(packetBytes)"
scalar UniversityNetwork.Internet.ppp[0].queue 	queueLength:max 	40
attr interpolationmode  sample-hold
attr title  "queue length, max"
scalar UniversityNetwork.Internet.ppp[0].queue 	queueLength:timeavg 	0.024424907687451
attr interpolationmode  sample-hold
attr title  "queue length, timeavg"
scalar UniversityNetwork.Internet.ppp[0].queue 	rcvdPk:count 	281115
attr interpolationmode  none
attr title  "received packets, count"
scalar UniversityNetwork.Internet.ppp[0].queue 	rcvdPk:sum(packetBytes) 	240569894
attr interpolationmode  none
attr title  "received packets, sum(packetBytes)"
scalar UniversityNetwork.Internet.ppp[0].ppp 	rcvdPkFromHL:count 	270110
attr interpolationmode  none
attr source  packetReceivedFromUpper
attr title  "packets received from higher layer, count"
scalar UniversityNetwork.Internet.ppp[0].ppp 	rcvdPkFromHL:sum(packetBytes) 	224084369
attr interpolationmode  none
attr source  packetReceivedFromUpper
attr title  "packets received from higher layer, sum(packetBytes)"
scalar UniversityNetwork.Internet.ppp[0].ppp 	passedUpPk:count 	263936
attr interpolationmode  none
attr source  packetSentToUpper
attr title  "packets passed to higher layer, count"
scalar UniversityNetwork.Internet.ppp[0].ppp 	passedUpPk:sum(packetBytes) 	187979227
attr interpolationmode  none
attr source  packetSentToUpper
attr title  "packets passed to higher layer, sum(packetBytes)"
scalar UniversityNetwork.Internet.ppp[0].ppp 	txPk:count 	270110
attr interpolationmode  none
attr source  packetSentToLower
attr title  "packets transmitted, count"
scalar UniversityNetwork.Internet.ppp[0].ppp 	txPk:sum(packetBytes) 	225975139
attr interpolationmode  none
attr source  packetSentToLower
attr title  "packets transmitted, sum(packetBytes)"
scalar UniversityNetwork.Internet.ppp[0].ppp 	droppedPkBitError:count 	0
attr interpolationmode  none
attr source  dropPkBitError
attr title  "packets dropped/bit error, count"
scalar UniversityNetwork.Internet.ppp[0].ppp 	droppedPkBitError:sum(packetBytes) 	0
attr interpolationmode  none
attr source  dropPkBitError
attr title  "packets dropped/bit error, sum(packetBytes)"
scalar UniversityNetwork.Internet.ppp[0].ppp 	droppedPkIfaceDown:count 	0
attr interpolationmode  none
attr source  dropPkIfaceDown
attr title  "packets dropped/interface down, count"
scalar UniversityNetwork.Internet.ppp[0].ppp 	droppedPkIfaceDown:sum(packetBytes) 	0
attr interpolationmode  none
attr source  dropPkIfaceDown
attr title  "packets dropped/interface down, sum(packetBytes)"
scalar UniversityNetwork.Internet.ppp[0].ppp 	rxPkOk:count 	263936
attr interpolationmode  none
attr source  rxPkOk
attr title  "packets received OK, count"
scalar UniversityNetwork.Internet.ppp[0].ppp 	rxPkOk:sum(packetBytes) 	189826779
attr interpolationmode  none
attr source  rxPkOk
attr title  "packets received OK, sum(packetBytes)"
scalar UniversityNetwork.Internet.ppp[0].ppp 	txState:timeavg 	0.060260037066251
attr interpolationmode  sample-hold
attr title  "tx state, timeavg"
scalar UniversityNetwork.Internet.tcpApp[0] 	sentPk:count 	345
attr interpolationmode  none
attr source  sentPk
attr title  "packets sent, count"
scalar UniversityNetwork.Internet.tcpApp[0] 	sentPk:sum(packetBytes) 	199070066
attr interpolationmode  none
attr source  sentPk
attr title  "packets sent, sum(packetBytes)"
scalar UniversityNetwork.Internet.tcpApp[0] 	rcvdPk:count 	345
attr interpolationmode  none
attr source  rcvdPk
attr title  "packets received, count"
scalar UniversityNetwork.Internet.tcpApp[0] 	rcvdPk:sum(packetBytes) 	258750
attr interpolationmode  none
attr source  rcvdPk
attr title  "packets received, sum(packetBytes)"
statistic UniversityNetwork.Internet.tcpApp[0] 	endToEndDelay:histogram
field count 345
field mean 0.027057627317513
field stddev 0.004309222890448
field sum 9.334881424542
field sqrsum 0.25896761689876
field min 0.025133453498
field max 0.070273055353
attr interpolationmode  none
attr source  messageAge(rcvdPk)
attr title  "end-to-end delay, histogram"
attr unit  s
bin	-INF	0
bin	0.0101688530545	0
bin	0.012164133113633	0
bin	0.014159413172767	0
bin	0.0161546932319	0
bin	0.018149973291033	0
bin	0.020145253350167	0
bin	0.0221405334093	0
bin	0.024135813468433	170
bin	0.026131093527567	123
bin	0.0281263735867	27
bin	0.030121653645833	9
bin	0.032116933704967	6
bin	0.0341122137641	2
bin	0.036107493823233	1
bin	0.038102773882367	0
bin	0.0400980539415	2
bin	0.042093334000633	1
bin	0.044088614059767	0
bin	0.0460838941189	0
bin	0.048079174178033	0
bin	0.050074454237167	0
bin	0.0520697342963	1
bin	0.054065014355433	1
bin	0.056060294414567	0
bin	0.0580555744737	0
bin	0.060050854532833	1
bin	0.062046134591967	0
bin	0.0640414146511	0
bin	0.066036694710233	0
bin	0.068031974769367	0
bin	0.0700272548285	1
scalar UniversityNetwork.Professor.networkLayer.arp 	initiatedARPResolution:count 	0
attr title  "ARP initiated resolutions, count"
scalar UniversityNetwork.Professor.networkLayer.arp 	sentReply:count 	0
attr title  "ARP replies sent, count"
scalar UniversityNetwork.Professor.networkLayer.arp 	sentReq:count 	0
attr title  "ARP request sent, count"
scalar UniversityNetwork.Professor.networkLayer.arp 	failedARPResolution:count 	0
attr title  "ARP failed resolutions, count"
scalar UniversityNetwork.Professor.networkLayer.arp 	completedARPResolution:count 	0
attr title  "ARP completed resolutions, count"
scalar UniversityNetwork.Professor.lo0.lo 	rcvdPkFromHL:count 	0
attr interpolationmode  none
attr source  packetReceivedFromUpper
attr title  "packets received from higher layer, count"
scalar UniversityNetwork.Professor.lo0.lo 	rcvdPkFromHL:sum(packetBytes) 	0
attr interpolationmode  none
attr source  packetReceivedFromUpper
attr title  "packets received from higher layer, sum(packetBytes)"
scalar UniversityNetwork.Professor.lo0.lo 	passedUpPk:count 	0
attr interpolationmode  none
attr source  packetSentToUpper
attr title  "packets passed to higher layer, count"
scalar UniversityNetwork.Professor.lo0.lo 	passedUpPk:sum(packetBytes) 	0
attr interpolationmode  none
attr source  packetSentToUpper
attr title  "packets passed to higher layer, sum(packetBytes)"
scalar UniversityNetwork.Professor.lo0.lo 	droppedPkBitError:count 	0
attr interpolationmode  none
attr source  dropPkBitError
attr title  "packets dropped/bit error, count"
scalar UniversityNetwork.Professor.lo0.lo 	droppedPkBitError:sum(packetBytes) 	0
attr interpolationmode  none
attr source  dropPkBitError
attr title  "packets dropped/bit error, sum(packetBytes)"
scalar UniversityNetwork.Professor.ppp[0].inputHook[0] 	duration 	300
scalar UniversityNetwork.Professor.ppp[0].inputHook[0] 	"total packets" 	7499
scalar UniversityNetwork.Professor.ppp[0].inputHook[0] 	"total bits" 	85668576
scalar UniversityNetwork.Professor.ppp[0].inputHook[0] 	"avg throughput (bit/s)" 	285561.92
scalar UniversityNetwork.Professor.ppp[0].inputHook[0] 	"avg packets/s" 	24.996666666667
statistic UniversityNetwork.Professor.ppp[0].queue 	queueingTime:histogram
field count 7499
field mean 0
field stddev 0
field sum 0
field sqrsum 0
field min 0
field max 0
attr interpolationmode  none
attr title  "queueing time, histogram"
bin	-INF	0
bin	-0.5	0
bin	-0.46666666666667	0
bin	-0.43333333333333	0
bin	-0.4	0
bin	-0.36666666666667	0
bin	-0.33333333333333	0
bin	-0.3	0
bin	-0.26666666666667	0
bin	-0.23333333333333	0
bin	-0.2	0
bin	-0.16666666666667	0
bin	-0.13333333333333	0
bin	-0.1	0
bin	-0.066666666666667	0
bin	-0.033333333333333	0
bin	0	7499
bin	0.033333333333333	0
bin	0.066666666666667	0
bin	0.1	0
bin	0.13333333333333	0
bin	0.16666666666667	0
bin	0.2	0
bin	0.23333333333333	0
bin	0.26666666666667	0
bin	0.3	0
bin	0.33333333333333	0
bin	0.36666666666667	0
bin	0.4	0
bin	0.43333333333333	0
bin	0.46666666666667	0
bin	0.5	0
scalar UniversityNetwork.Professor.ppp[0].queue 	dropPk:count 	0
attr interpolationmode  none
attr source  dropPkByQueue
attr title  "dropped packets, count"
scalar UniversityNetwork.Professor.ppp[0].queue 	dropPk:sum(packetBytes) 	0
attr interpolationmode  none
attr source  dropPkByQueue
attr title  "dropped packets, sum(packetBytes)"
scalar UniversityNetwork.Professor.ppp[0].queue 	queueLength:max 	0
attr interpolationmode  sample-hold
attr title  "queue length, max"
scalar UniversityNetwork.Professor.ppp[0].queue 	queueLength:timeavg 	0
attr interpolationmode  sample-hold
attr title  "queue length, timeavg"
scalar UniversityNetwork.Professor.ppp[0].queue 	rcvdPk:count 	7499
attr interpolationmode  none
attr title  "received packets, count"
scalar UniversityNetwork.Professor.ppp[0].queue 	rcvdPk:sum(packetBytes) 	10708572
attr interpolationmode  none
attr title  "received packets, sum(packetBytes)"
scalar UniversityNetwork.Professor.ppp[0].ppp 	rcvdPkFromHL:count 	7499
attr interpolationmode  none
attr source  packetReceivedFromUpper
attr title  "packets received from higher layer, count"
scalar UniversityNetwork.Professor.ppp[0].ppp 	rcvdPkFromHL:sum(packetBytes) 	10708572
attr interpolationmode  none
attr source  packetReceivedFromUpper
attr title  "packets received from higher layer, sum(packetBytes)"
scalar UniversityNetwork.Professor.ppp[0].ppp 	passedUpPk:count 	7499
attr interpolationmode  none
attr source  packetSentToUpper
attr title  "packets passed to higher layer, count"
scalar UniversityNetwork.Professor.ppp[0].ppp 	passedUpPk:sum(packetBytes) 	10708572
attr interpolationmode  none
attr source  packetSentToUpper
attr title  "packets passed to higher layer, sum(packetBytes)"
scalar UniversityNetwork.Professor.ppp[0].ppp 	txPk:count 	7499
attr interpolationmode  none
attr source  packetSentToLower
attr title  "packets transmitted, count"
scalar UniversityNetwork.Professor.ppp[0].ppp 	txPk:sum(packetBytes) 	10761065
attr interpolationmode  none
attr source  packetSentToLower
attr title  "packets transmitted, sum(packetBytes)"
scalar UniversityNetwork.Professor.ppp[0].ppp 	droppedPkBitError:count 	0
attr interpolationmode  none
attr source  dropPkBitError
attr title  "packets dropped/bit error, count"
scalar UniversityNetwork.Professor.ppp[0].ppp 	droppedPkBitError:sum(packetBytes) 	0
attr interpolationmode  none
attr source  dropPkBitError
attr title  "packets dropped/bit error, sum(packetBytes)"
scalar UniversityNetwork.Professor.ppp[0].ppp 	droppedPkIfaceDown:count 	0
attr interpolationmode  none
attr source  dropPkIfaceDown
attr title  "packets dropped/interface down, count"
scalar UniversityNetwork.Professor.ppp[0].ppp 	droppedPkIfaceDown:sum(packetBytes) 	0
attr interpolationmode  none
attr source  dropPkIfaceDown
attr title  "packets dropped/interface down, sum(packetBytes)"
scalar UniversityNetwork.Professor.ppp[0].ppp 	rxPkOk:count 	7499
attr interpolationmode  none
attr source  rxPkOk
attr title  "packets received OK, count"
scalar UniversityNetwork.Professor.ppp[0].ppp 	rxPkOk:sum(packetBytes) 	10761065
attr interpolationmode  none
attr source  rxPkOk
attr title  "packets received OK, sum(packetBytes)"
scalar UniversityNetwork.Professor.ppp[0].ppp 	txState:timeavg 	0.0028696173333332
attr interpolationmode  sample-hold
attr title  "tx state, timeavg"
scalar UniversityNetwork.Professor.udpApp[0] 	#droppedBecauseLate 	26
scalar UniversityNetwork.Professor.udpApp[0] 	avgDuration 	0.02025354623092
scalar UniversityNetwork.Professor.udpApp[0] 	"error rate" 	0.0034671289505267
scalar UniversityNetwork.Professor.udpApp[0] 	"packets sent" 	7500
scalar UniversityNetwork.Professor.udpApp[0] 	"packets received" 	7499
scalar UniversityNetwork.Professor.udpApp[0] 	sentPk:count 	7500
attr interpolationmode  none
attr source  sentPk
attr title  "packets sent, count"
scalar UniversityNetwork.Professor.udpApp[0] 	sentPk:sum(packetBytes) 	10500000
attr interpolationmode  none
attr source  sentPk
attr title  "packets sent, sum(packetBytes)"
scalar UniversityNetwork.Professor.udpApp[0] 	rcvdPk:count 	7499
attr interpolationmode  none
attr source  rcvdPk
attr title  "packets received, count"
scalar UniversityNetwork.Professor.udpApp[0] 	rcvdPk:sum(packetBytes) 	10498600
attr interpolationmode  none
attr source  rcvdPk
attr title  "packets received, sum(packetBytes)"
statistic UniversityNetwork.Professor.udpApp[0] 	rcvdPkLifetime:stats
field count 7499
field mean 0.02025354623088
field stddev 0.036819085416903
field sum 151.88134318537
field sqrsum 13.24076239774
field min 0.016460396666
field max 1.05409549457
attr interpolationmode  none
attr source  messageAge(rcvdPk)
attr title  "received packet lifetime, stats"
attr unit  s
scalar UniversityNetwork.Professor.udp 	droppedPkBadChecksum:count 	0
attr interpolationmode  none
attr title  "packets dropped (checksum error), count"
scalar UniversityNetwork.Professor.udp 	droppedPkWrongPort:count 	0
attr interpolationmode  none
attr title  "packets dropped (wrong port), count"
scalar UniversityNetwork.Professor.udp 	passedUpPk:count 	7499
attr interpolationmode  none
attr title  "packets passed up, count"
scalar UniversityNetwork.Professor.udp 	sentPk:count 	7499
attr interpolationmode  none
attr source  sentPk
attr title  "packets sent, count"
scalar UniversityNetwork.Professor.udp 	sentPk:sum(packetBytes) 	10558592
attr interpolationmode  none
attr source  sentPk
attr title  "packets sent, sum(packetBytes)"
scalar UniversityNetwork.Professor.udp 	rcvdPk:count 	7499
attr interpolationmode  none
attr source  rcvdPk
attr title  "packets received, count"
scalar UniversityNetwork.Professor.udp 	rcvdPk:sum(packetBytes) 	10558592
attr interpolationmode  none
attr source  rcvdPk
attr title  "packets received, sum(packetBytes)"
scalar UniversityNetwork.accessPoint.relayUnit 	"number of received BPDUs from STP module" 	0
scalar UniversityNetwork.accessPoint.relayUnit 	"number of received frames from network (including BPDUs)" 	547649
scalar UniversityNetwork.accessPoint.relayUnit 	"number of dropped frames (including BPDUs)" 	0
scalar UniversityNetwork.accessPoint.relayUnit 	"number of delivered BPDUs to the STP module" 	0
scalar UniversityNetwork.accessPoint.relayUnit 	"number of dispatched BPDU frames to the network" 	0
scalar UniversityNetwork.accessPoint.relayUnit 	"number of dispatched non-BDPU frames to the network" 	547649
scalar UniversityNetwork.accessPoint.wlan[0].mgmt 	dropPkByQueue:count 	16234
attr interpolationmode  none
attr source  dropPkByQueue
attr title  "packets dropped by queue, count"
scalar UniversityNetwork.accessPoint.wlan[0].mgmt 	dropPkByQueue:sum(packetBytes) 	8307185
attr interpolationmode  none
attr source  dropPkByQueue
attr title  "packets dropped by queue, sum(packetBytes)"
scalar UniversityNetwork.accessPoint.wlan[0].mgmt 	dataQueueLen:max 	50
attr interpolationmode  sample-hold
attr title  "data queue length, max"
scalar UniversityNetwork.accessPoint.wlan[0].mgmt 	dataQueueLen:timeavg 	35.411351630461
attr interpolationmode  sample-hold
attr title  "data queue length, timeavg"
scalar UniversityNetwork.accessPoint.wlan[0].mac 	"number of received packets" 	271841
scalar UniversityNetwork.accessPoint.wlan[0].mac 	"number of collisions" 	2558
scalar UniversityNetwork.accessPoint.wlan[0].mac 	"number of internal collisions" 	0
scalar UniversityNetwork.accessPoint.wlan[0].mac 	"number of retry for AC 0" 	32534
scalar UniversityNetwork.accessPoint.wlan[0].mac 	"sent and received bits" 	1887127312
scalar UniversityNetwork.accessPoint.wlan[0].mac 	"sent packet within AC 0" 	260133
scalar UniversityNetwork.accessPoint.wlan[0].mac 	"sent in TXOP " 	0
scalar UniversityNetwork.accessPoint.wlan[0].mac 	"sentWithoutRetry AC 0" 	229580
scalar UniversityNetwork.accessPoint.wlan[0].mac 	"numGivenUp AC 0" 	0
scalar UniversityNetwork.accessPoint.wlan[0].mac 	"numDropped AC 0" 	0
scalar UniversityNetwork.accessPoint.wlan[0].mac 	rcvdPkFromHL:count 	263238
attr interpolationmode  none
attr source  packetReceivedFromUpper
attr title  "packets received from higher layer, count"
scalar UniversityNetwork.accessPoint.wlan[0].mac 	rcvdPkFromHL:sum(packetBytes) 	235892534
attr interpolationmode  none
attr source  packetReceivedFromUpper
attr title  "packets received from higher layer, sum(packetBytes)"
scalar UniversityNetwork.accessPoint.wlan[0].mac 	passedUpPk:count 	271893
attr interpolationmode  none
attr source  packetSentToUpper
attr title  "packets passed to higher layer, count"
scalar UniversityNetwork.accessPoint.wlan[0].mac 	passedUpPk:sum(packetBytes) 	210133189
attr interpolationmode  none
attr source  packetSentToUpper
attr title  "packets passed to higher layer, sum(packetBytes)"
scalar UniversityNetwork.accessPoint.wlan[0].mac 	rcvdPkFromLL:count 	534584
attr interpolationmode  none
attr source  packetReceivedFromLower
attr title  "packets received from lower layer, count"
scalar UniversityNetwork.accessPoint.wlan[0].mac 	rcvdPkFromLL:sum(packetBytes) 	215321307
attr interpolationmode  none
attr source  packetReceivedFromLower
attr title  "packets received from lower layer, sum(packetBytes)"
scalar UniversityNetwork.accessPoint.wlan[0].mac 	sentDownPk:count 	567611
attr interpolationmode  none
attr source  packetSentToLower
attr title  "packets sent to lower layer, count"
scalar UniversityNetwork.accessPoint.wlan[0].mac 	sentDownPk:sum(packetBytes) 	267791734
attr interpolationmode  none
attr source  packetSentToLower
attr title  "packets sent to lower layer, sum(packetBytes)"
scalar UniversityNetwork.accessPoint.wlan[0].radio 	lossRate:min 	0
attr interpolationmode  backward-sample-hold
attr title  "packet loss rate, min"
scalar UniversityNetwork.accessPoint.wlan[0].radio 	lossRate:max 	0.18
attr interpolationmode  backward-sample-hold
attr title  "packet loss rate, max"
scalar UniversityNetwork.accessPoint.wlan[0].radio 	lossRate:timeavg 	0.0047719623692833
attr interpolationmode  backward-sample-hold
attr title  "packet loss rate, timeavg"
statistic UniversityNetwork.accessPoint.wlan[0].radio 	channelNo:histogram
field count 1
field mean 0
field stddev -nan
field sum 0
field sqrsum 0
field min 0
field max 0
attr interpolationmode  sample-hold
attr title  "channel no, histogram"
bin	-INF	0
bin	-0.5	0
bin	-0.46666666666667	0
bin	-0.43333333333333	0
bin	-0.4	0
bin	-0.36666666666667	0
bin	-0.33333333333333	0
bin	-0.3	0
bin	-0.26666666666667	0
bin	-0.23333333333333	0
bin	-0.2	0
bin	-0.16666666666667	0
bin	-0.13333333333333	0
bin	-0.1	0
bin	-0.066666666666667	0
bin	-0.033333333333333	0
bin	0	1
bin	0.033333333333333	0
bin	0.066666666666667	0
bin	0.1	0
bin	0.13333333333333	0
bin	0.16666666666667	0
bin	0.2	0
bin	0.23333333333333	0
bin	0.26666666666667	0
bin	0.3	0
bin	0.33333333333333	0
bin	0.36666666666667	0
bin	0.4	0
bin	0.43333333333333	0
bin	0.46666666666667	0
bin	0.5	0
scalar UniversityNetwork.accessPoint.wlan[0].radio 	radioState:count 	2238518
attr interpolationmode  sample-hold
attr title  "radio state (enum), count"
scalar UniversityNetwork.accessPoint.wlan[0].radio 	bitrate:min 	54000000
attr interpolationmode  sample-hold
attr title  "tx bitrate, min"
attr unit  bps
scalar UniversityNetwork.accessPoint.wlan[0].radio 	bitrate:max 	54000000
attr interpolationmode  sample-hold
attr title  "tx bitrate, max"
attr unit  bps
scalar UniversityNetwork.accessPoint.wlan[0].radio 	bitrate:timeavg 	54000000
attr interpolationmode  sample-hold
attr title  "tx bitrate, timeavg"
attr unit  bps
scalar UniversityNetwork.accessPoint.eth[0].mac 	"simulated time" 	300
scalar UniversityNetwork.accessPoint.eth[0].mac 	full-duplex 	1
scalar UniversityNetwork.accessPoint.eth[0].mac 	"frames/sec sent" 	905.21666666667
scalar UniversityNetwork.accessPoint.eth[0].mac 	"frames/sec rcvd" 	920.28
scalar UniversityNetwork.accessPoint.eth[0].mac 	"bits/sec sent" 	5390106.64
scalar UniversityNetwork.accessPoint.eth[0].mac 	"bits/sec rcvd" 	6348688.8
scalar UniversityNetwork.accessPoint.eth[0].mac 	"rx channel idle (%)" 	93.592413280015
scalar UniversityNetwork.accessPoint.eth[0].mac 	"rx channel utilization (%)" 	6.407586719985
scalar UniversityNetwork.accessPoint.eth[0].mac 	rxPkFromHL:count 	271565
attr interpolationmode  none
attr source  rxPkFromHL
attr title  "packet bytes from higher layer, count"
scalar UniversityNetwork.accessPoint.eth[0].mac 	rxPkFromHL:sum(packetBytes) 	202128999
attr interpolationmode  none
attr source  rxPkFromHL
attr title  "packet bytes from higher layer, sum(packetBytes)"
scalar UniversityNetwork.accessPoint.eth[0].mac 	rxPausePkUnits:count 	0
attr interpolationmode  none
attr title  "pause units received, count"
scalar UniversityNetwork.accessPoint.eth[0].mac 	rxPausePkUnits:sum 	0
attr interpolationmode  none
attr title  "pause units received, sum"
scalar UniversityNetwork.accessPoint.eth[0].mac 	txPausePkUnits:count 	0
attr interpolationmode  none
attr title  "pause units sent, count"
scalar UniversityNetwork.accessPoint.eth[0].mac 	txPausePkUnits:sum 	0
attr interpolationmode  none
attr title  "pause units sent, sum"
scalar UniversityNetwork.accessPoint.eth[0].mac 	txPk:count 	271565
attr interpolationmode  none
attr source  txPk
attr title  "packets transmitted, count"
scalar UniversityNetwork.accessPoint.eth[0].mac 	txPk:sum(packetBytes) 	202128999
attr interpolationmode  none
attr source  txPk
attr title  "packets transmitted, sum(packetBytes)"
scalar UniversityNetwork.accessPoint.eth[0].mac 	droppedPkNotForUs:count 	0
attr interpolationmode  none
attr source  dropPkNotForUs
attr title  "packets dropped/not for us, count"
scalar UniversityNetwork.accessPoint.eth[0].mac 	droppedPkNotForUs:sum(packetBytes) 	0
attr interpolationmode  none
attr source  dropPkNotForUs
attr title  "packets dropped/not for us, sum(packetBytes)"
scalar UniversityNetwork.accessPoint.eth[0].mac 	passedUpPk:count 	276084
attr interpolationmode  none
attr source  packetSentToUpper
attr title  "packets passed to higher layer, count"
scalar UniversityNetwork.accessPoint.eth[0].mac 	passedUpPk:sum(packetBytes) 	238075830
attr interpolationmode  none
attr source  packetSentToUpper
attr title  "packets passed to higher layer, sum(packetBytes)"
scalar UniversityNetwork.accessPoint.eth[0].mac 	droppedPkBitError:count 	0
attr interpolationmode  none
attr source  dropPkBitError
attr title  "packets dropped/bit error, count"
scalar UniversityNetwork.accessPoint.eth[0].mac 	droppedPkBitError:sum(packetBytes) 	0
attr interpolationmode  none
attr source  dropPkBitError
attr title  "packets dropped/bit error, sum(packetBytes)"
scalar UniversityNetwork.accessPoint.eth[0].mac 	droppedPkIfaceDown:count 	0
attr interpolationmode  none
attr source  dropPkIfaceDown
attr title  "packets dropped/interface down, count"
scalar UniversityNetwork.accessPoint.eth[0].mac 	droppedPkIfaceDown:sum(packetBytes) 	0
attr interpolationmode  none
attr source  dropPkIfaceDown
attr title  "packets dropped/interface down, sum(packetBytes)"
scalar UniversityNetwork.accessPoint.eth[0].mac 	rxPkOk:count 	276084
attr interpolationmode  none
attr source  rxPkOk
attr title  "packets received OK, count"
scalar UniversityNetwork.accessPoint.eth[0].mac 	rxPkOk:sum(packetBytes) 	238075830
attr interpolationmode  none
attr source  rxPkOk
attr title  "packets received OK, sum(packetBytes)"
scalar UniversityNetwork.FTPUploader.networkLayer.arp 	initiatedARPResolution:count 	3
attr title  "ARP initiated resolutions, count"
scalar UniversityNetwork.FTPUploader.networkLayer.arp 	sentReply:count 	2
attr title  "ARP replies sent, count"
scalar UniversityNetwork.FTPUploader.networkLayer.arp 	sentReq:count 	4
attr title  "ARP request sent, count"
scalar UniversityNetwork.FTPUploader.networkLayer.arp 	failedARPResolution:count 	0
attr title  "ARP failed resolutions, count"
scalar UniversityNetwork.FTPUploader.networkLayer.arp 	completedARPResolution:count 	16
attr title  "ARP completed resolutions, count"
scalar UniversityNetwork.FTPUploader.lo0.lo 	rcvdPkFromHL:count 	0
attr interpolationmode  none
attr source  packetReceivedFromUpper
attr title  "packets received from higher layer, count"
scalar UniversityNetwork.FTPUploader.lo0.lo 	rcvdPkFromHL:sum(packetBytes) 	0
attr interpolationmode  none
attr source  packetReceivedFromUpper
attr title  "packets received from higher layer, sum(packetBytes)"
scalar UniversityNetwork.FTPUploader.lo0.lo 	passedUpPk:count 	0
attr interpolationmode  none
attr source  packetSentToUpper
attr title  "packets passed to higher layer, count"
scalar UniversityNetwork.FTPUploader.lo0.lo 	passedUpPk:sum(packetBytes) 	0
attr interpolationmode  none
attr source  packetSentToUpper
attr title  "packets passed to higher layer, sum(packetBytes)"
scalar UniversityNetwork.FTPUploader.lo0.lo 	droppedPkBitError:count 	0
attr interpolationmode  none
attr source  dropPkBitError
attr title  "packets dropped/bit error, count"
scalar UniversityNetwork.FTPUploader.lo0.lo 	droppedPkBitError:sum(packetBytes) 	0
attr interpolationmode  none
attr source  dropPkBitError
attr title  "packets dropped/bit error, sum(packetBytes)"
scalar UniversityNetwork.FTPUploader.wlan[0].agent 	dropConfirm:count 	0
attr title  "dropped confirms, count"
scalar UniversityNetwork.FTPUploader.wlan[0].agent 	acceptConfirm:count 	18
attr title  "accepted confirms, count"
scalar UniversityNetwork.FTPUploader.wlan[0].agent 	sentRequest:count 	18
attr title  "sent requests, count"
scalar UniversityNetwork.FTPUploader.wlan[0].mgmt 	dropPkByQueue:count 	386
attr interpolationmode  none
attr source  dropPkByQueue
attr title  "packets dropped by queue, count"
scalar UniversityNetwork.FTPUploader.wlan[0].mgmt 	dropPkByQueue:sum(packetBytes) 	595212
attr interpolationmode  none
attr source  dropPkByQueue
attr title  "packets dropped by queue, sum(packetBytes)"
scalar UniversityNetwork.FTPUploader.wlan[0].mgmt 	dataQueueLen:max 	50
attr interpolationmode  sample-hold
attr title  "data queue length, max"
scalar UniversityNetwork.FTPUploader.wlan[0].mgmt 	dataQueueLen:timeavg 	6.3022376939383
attr interpolationmode  sample-hold
attr title  "data queue length, timeavg"
scalar UniversityNetwork.FTPUploader.wlan[0].mac 	"number of received packets" 	110223
scalar UniversityNetwork.FTPUploader.wlan[0].mac 	"number of collisions" 	9459
scalar UniversityNetwork.FTPUploader.wlan[0].mac 	"number of internal collisions" 	0
scalar UniversityNetwork.FTPUploader.wlan[0].mac 	"number of retry for AC 0" 	27077
scalar UniversityNetwork.FTPUploader.wlan[0].mac 	"sent and received bits" 	1497083560
scalar UniversityNetwork.FTPUploader.wlan[0].mac 	"sent packet within AC 0" 	121414
scalar UniversityNetwork.FTPUploader.wlan[0].mac 	"sent in TXOP " 	0
scalar UniversityNetwork.FTPUploader.wlan[0].mac 	"sentWithoutRetry AC 0" 	99967
scalar UniversityNetwork.FTPUploader.wlan[0].mac 	"numGivenUp AC 0" 	1
scalar UniversityNetwork.FTPUploader.wlan[0].mac 	"numDropped AC 0" 	0
scalar UniversityNetwork.FTPUploader.wlan[0].mac 	rcvdPkFromHL:count 	121423
attr interpolationmode  none
attr source  packetReceivedFromUpper
attr title  "packets received from higher layer, count"
scalar UniversityNetwork.FTPUploader.wlan[0].mac 	rcvdPkFromHL:sum(packetBytes) 	187140071
attr interpolationmode  none
attr source  packetReceivedFromUpper
attr title  "packets received from higher layer, sum(packetBytes)"
scalar UniversityNetwork.FTPUploader.wlan[0].mac 	passedUpPk:count 	113040
attr interpolationmode  none
attr source  packetSentToUpper
attr title  "packets passed to higher layer, count"
scalar UniversityNetwork.FTPUploader.wlan[0].mac 	passedUpPk:sum(packetBytes) 	9254594
attr interpolationmode  none
attr source  packetSentToUpper
attr title  "packets passed to higher layer, sum(packetBytes)"
scalar UniversityNetwork.FTPUploader.wlan[0].mac 	rcvdPkFromLL:count 	842562
attr interpolationmode  none
attr source  packetReceivedFromLower
attr title  "packets received from lower layer, count"
scalar UniversityNetwork.FTPUploader.wlan[0].mac 	rcvdPkFromLL:sum(packetBytes) 	268707790
attr interpolationmode  none
attr source  packetReceivedFromLower
attr title  "packets received from lower layer, sum(packetBytes)"
scalar UniversityNetwork.FTPUploader.wlan[0].mac 	sentDownPk:count 	258722
attr interpolationmode  none
attr source  packetSentToLower
[...]
statistic UniversityNetwork.Students[22].tcpApp[0] 	endToEndDelay:histogram
field count 15
field mean 4.7345823959562
field stddev 3.8498331995133
field sum 71.018735939343
field sqrsum 543.74107625852
field min 0.248608881809
field max 15.184804594854
attr interpolationmode  none
attr source  messageAge(rcvdPk)
attr title  "end-to-end delay, histogram"
attr unit  s
bin	-INF	0
bin	-7.2194889747135	0
bin	-6.2237425938438	0
bin	-5.2279962129742	0
bin	-4.2322498321045	0
bin	-3.2365034512348	0
bin	-2.2407570703652	0
bin	-1.2450106894955	0
bin	-0.24926430862583	3
bin	0.74648207224383	1
bin	1.7422284531135	1
bin	2.7379748339832	2
bin	3.7337212148528	1
bin	4.7294675957225	2
bin	5.7252139765922	1
bin	6.7209603574618	2
bin	7.7167067383315	1
bin	8.7124531192012	0
bin	9.7081995000708	0
bin	10.703945880941	0
bin	11.69969226181	0
bin	12.69543864268	0
bin	13.69118502355	0
bin	14.686931404419	1
bin	15.682677785289	0
bin	16.678424166158	0
bin	17.674170547028	0
bin	18.669916927898	0
bin	19.665663308768	0
bin	20.661409689637	0
bin	21.657156070507	0
bin	22.652902451377	0
scalar UniversityNetwork.Students[23].networkLayer.arp 	initiatedARPResolution:count 	3
attr title  "ARP initiated resolutions, count"
scalar UniversityNetwork.Students[23].networkLayer.arp 	sentReply:count 	1
attr title  "ARP replies sent, count"
scalar UniversityNetwork.Students[23].networkLayer.arp 	sentReq:count 	3
attr title  "ARP request sent, count"
scalar UniversityNetwork.Students[23].networkLayer.arp 	failedARPResolution:count 	0
attr title  "ARP failed resolutions, count"
scalar UniversityNetwork.Students[23].networkLayer.arp 	completedARPResolution:count 	14
attr title  "ARP completed resolutions, count"
scalar UniversityNetwork.Students[23].lo0.lo 	rcvdPkFromHL:count 	0
attr interpolationmode  none
attr source  packetReceivedFromUpper
attr title  "packets received from higher layer, count"
scalar UniversityNetwork.Students[23].lo0.lo 	rcvdPkFromHL:sum(packetBytes) 	0
attr interpolationmode  none
attr source  packetReceivedFromUpper
attr title  "packets received from higher layer, sum(packetBytes)"
scalar UniversityNetwork.Students[23].lo0.lo 	passedUpPk:count 	0
attr interpolationmode  none
attr source  packetSentToUpper
attr title  "packets passed to higher layer, count"
scalar UniversityNetwork.Students[23].lo0.lo 	passedUpPk:sum(packetBytes) 	0
attr interpolationmode  none
attr source  packetSentToUpper
attr title  "packets passed to higher layer, sum(packetBytes)"
scalar UniversityNetwork.Students[23].lo0.lo 	droppedPkBitError:count 	0
attr interpolationmode  none
attr source  dropPkBitError
attr title  "packets dropped/bit error, count"
scalar UniversityNetwork.Students[23].lo0.lo 	droppedPkBitError:sum(packetBytes) 	0
attr interpolationmode  none
attr source  dropPkBitError
attr title  "packets dropped/bit error, sum(packetBytes)"
scalar UniversityNetwork.Students[23].wlan[0].agent 	dropConfirm:count 	0
attr title  "dropped confirms, count"
scalar UniversityNetwork.Students[23].wlan[0].agent 	acceptConfirm:count 	18
attr title  "accepted confirms, count"
scalar UniversityNetwork.Students[23].wlan[0].agent 	sentRequest:count 	18
attr title  "sent requests, count"
scalar UniversityNetwork.Students[23].wlan[0].mgmt 	dropPkByQueue:count 	0
attr interpolationmode  none
attr source  dropPkByQueue
attr title  "packets dropped by queue, count"
scalar UniversityNetwork.Students[23].wlan[0].mgmt 	dropPkByQueue:sum(packetBytes) 	0
attr interpolationmode  none
attr source  dropPkByQueue
attr title  "packets dropped by queue, sum(packetBytes)"
scalar UniversityNetwork.Students[23].wlan[0].mgmt 	dataQueueLen:max 	37
attr interpolationmode  sample-hold
attr title  "data queue length, max"
scalar UniversityNetwork.Students[23].wlan[0].mgmt 	dataQueueLen:timeavg 	0.0065574131888333
attr interpolationmode  sample-hold
attr title  "data queue length, timeavg"
scalar UniversityNetwork.Students[23].wlan[0].mac 	"number of received packets" 	4401
scalar UniversityNetwork.Students[23].wlan[0].mac 	"number of collisions" 	37086
scalar UniversityNetwork.Students[23].wlan[0].mac 	"number of internal collisions" 	0
scalar UniversityNetwork.Students[23].wlan[0].mac 	"number of retry for AC 0" 	376
scalar UniversityNetwork.Students[23].wlan[0].mac 	"sent and received bits" 	2975088
scalar UniversityNetwork.Students[23].wlan[0].mac 	"sent packet within AC 0" 	4404
scalar UniversityNetwork.Students[23].wlan[0].mac 	"sent in TXOP " 	0
scalar UniversityNetwork.Students[23].wlan[0].mac 	"sentWithoutRetry AC 0" 	4065
scalar UniversityNetwork.Students[23].wlan[0].mac 	"numGivenUp AC 0" 	0
scalar UniversityNetwork.Students[23].wlan[0].mac 	"numDropped AC 0" 	0
scalar UniversityNetwork.Students[23].wlan[0].mac 	rcvdPkFromHL:count 	4410
attr interpolationmode  none
attr source  packetReceivedFromUpper
attr title  "packets received from higher layer, count"
scalar UniversityNetwork.Students[23].wlan[0].mac 	rcvdPkFromHL:sum(packetBytes) 	371886
attr interpolationmode  none
attr source  packetReceivedFromUpper
attr title  "packets received from higher layer, sum(packetBytes)"
scalar UniversityNetwork.Students[23].wlan[0].mac 	passedUpPk:count 	7218
attr interpolationmode  none
attr source  packetSentToUpper
attr title  "packets passed to higher layer, count"
scalar UniversityNetwork.Students[23].wlan[0].mac 	passedUpPk:sum(packetBytes) 	6843378
attr interpolationmode  none
attr source  packetSentToUpper
attr title  "packets passed to higher layer, sum(packetBytes)"
scalar UniversityNetwork.Students[23].wlan[0].mac 	rcvdPkFromLL:count 	1093006
attr interpolationmode  none
attr source  packetReceivedFromLower
attr title  "packets received from lower layer, count"
scalar UniversityNetwork.Students[23].wlan[0].mac 	rcvdPkFromLL:sum(packetBytes) 	484870331
attr interpolationmode  none
attr source  packetReceivedFromLower
attr title  "packets received from lower layer, sum(packetBytes)"
scalar UniversityNetwork.Students[23].wlan[0].mac 	sentDownPk:count 	9187
attr interpolationmode  none
attr source  packetSentToLower
attr title  "packets sent to lower layer, count"
scalar UniversityNetwork.Students[23].wlan[0].mac 	sentDownPk:sum(packetBytes) 	472840
attr interpolationmode  none
attr source  packetSentToLower
attr title  "packets sent to lower layer, sum(packetBytes)"
scalar UniversityNetwork.Students[23].wlan[0].radio 	lossRate:min 	0
attr interpolationmode  backward-sample-hold
attr title  "packet loss rate, min"
scalar UniversityNetwork.Students[23].wlan[0].radio 	lossRate:max 	0.2
attr interpolationmode  backward-sample-hold
attr title  "packet loss rate, max"
scalar UniversityNetwork.Students[23].wlan[0].radio 	lossRate:timeavg 	0.033659820961996
attr interpolationmode  backward-sample-hold
attr title  "packet loss rate, timeavg"
statistic UniversityNetwork.Students[23].wlan[0].radio 	channelNo:histogram
field count 1
field mean 0
field stddev -nan
field sum 0
field sqrsum 0
field min 0
field max 0
attr interpolationmode  sample-hold
attr title  "channel no, histogram"
bin	-INF	0
bin	-0.5	0
bin	-0.46666666666667	0
bin	-0.43333333333333	0
bin	-0.4	0
bin	-0.36666666666667	0
bin	-0.33333333333333	0
bin	-0.3	0
bin	-0.26666666666667	0
bin	-0.23333333333333	0
bin	-0.2	0
bin	-0.16666666666667	0
bin	-0.13333333333333	0
bin	-0.1	0
bin	-0.066666666666667	0
bin	-0.033333333333333	0
bin	0	1
bin	0.033333333333333	0
bin	0.066666666666667	0
bin	0.1	0
bin	0.13333333333333	0
bin	0.16666666666667	0
bin	0.2	0
bin	0.23333333333333	0
bin	0.26666666666667	0
bin	0.3	0
bin	0.33333333333333	0
bin	0.36666666666667	0
bin	0.4	0
bin	0.43333333333333	0
bin	0.46666666666667	0
bin	0.5	0
scalar UniversityNetwork.Students[23].wlan[0].radio 	radioState:count 	2203060
attr interpolationmode  sample-hold
attr title  "radio state (enum), count"
scalar UniversityNetwork.Students[23].wlan[0].radio 	bitrate:min 	54000000
attr interpolationmode  sample-hold
attr title  "tx bitrate, min"
attr unit  bps
scalar UniversityNetwork.Students[23].wlan[0].radio 	bitrate:max 	54000000
attr interpolationmode  sample-hold
attr title  "tx bitrate, max"
attr unit  bps
scalar UniversityNetwork.Students[23].wlan[0].radio 	bitrate:timeavg 	54000000
attr interpolationmode  sample-hold
attr title  "tx bitrate, timeavg"
attr unit  bps
scalar UniversityNetwork.Students[23].tcpApp[0] 	numActiveSessions:max 	1
attr interpolationmode  sample-hold
attr source  sum(connect)
attr title  "number of active sessions, max"
scalar UniversityNetwork.Students[23].tcpApp[0] 	numActiveSessions:timeavg 	0.2660977341256
attr interpolationmode  sample-hold
attr source  sum(connect)
attr title  "number of active sessions, timeavg"
scalar UniversityNetwork.Students[23].tcpApp[0] 	numSessions:last 	14
attr source  sum(connect+1)/2
attr title  "total number of sessions, last"
scalar UniversityNetwork.Students[23].tcpApp[0] 	sentPk:count 	14
attr interpolationmode  none
attr source  sentPk
attr title  "packets sent, count"
scalar UniversityNetwork.Students[23].tcpApp[0] 	sentPk:sum(packetBytes) 	10500
attr interpolationmode  none
attr source  sentPk
attr title  "packets sent, sum(packetBytes)"
scalar UniversityNetwork.Students[23].tcpApp[0] 	rcvdPk:count 	13
attr interpolationmode  none
attr source  rcvdPk
attr title  "packets received, count"
scalar UniversityNetwork.Students[23].tcpApp[0] 	rcvdPk:sum(packetBytes) 	5358781
attr interpolationmode  none
attr source  rcvdPk
attr title  "packets received, sum(packetBytes)"
statistic UniversityNetwork.Students[23].tcpApp[0] 	endToEndDelay:histogram
field count 13
field mean 5.5589163792141
field stddev 6.5432140249499
field sum 72.265912929783
field sqrsum 915.48396435985
field min 0.478721080772
field max 20.991850569193
attr interpolationmode  none
attr source  messageAge(rcvdPk)
attr title  "end-to-end delay, histogram"
attr unit  s
bin	-INF	0
bin	-9.7778436634385	0
bin	-8.4103016975438	0
bin	-7.042759731649	0
bin	-5.6752177657543	0
bin	-4.3076757998596	0
bin	-2.9401338339648	0
bin	-1.5725918680701	0
bin	-0.20504990217537	4
bin	1.1624920637194	4
bin	2.5300340296141	0
bin	3.8975759955088	0
bin	5.2651179614036	0
bin	6.6326599272983	0
bin	8.000201893193	1
bin	9.3677438590878	1
bin	10.735285824982	1
bin	12.102827790877	1
bin	13.470369756772	0
bin	14.837911722667	0
bin	16.205453688561	0
bin	17.572995654456	0
bin	18.940537620351	0
bin	20.308079586246	1
bin	21.67562155214	0
bin	23.043163518035	0
bin	24.41070548393	0
bin	25.778247449825	0
bin	27.145789415719	0
bin	28.513331381614	0
bin	29.880873347509	0
bin	31.248415313403	0
scalar UniversityNetwork.Students[24].networkLayer.arp 	initiatedARPResolution:count 	3
attr title  "ARP initiated resolutions, count"
scalar UniversityNetwork.Students[24].networkLayer.arp 	sentReply:count 	0
attr title  "ARP replies sent, count"
scalar UniversityNetwork.Students[24].networkLayer.arp 	sentReq:count 	3
attr title  "ARP request sent, count"
scalar UniversityNetwork.Students[24].networkLayer.arp 	failedARPResolution:count 	0
attr title  "ARP failed resolutions, count"
scalar UniversityNetwork.Students[24].networkLayer.arp 	completedARPResolution:count 	3
attr title  "ARP completed resolutions, count"
scalar UniversityNetwork.Students[24].lo0.lo 	rcvdPkFromHL:count 	0
attr interpolationmode  none
attr source  packetReceivedFromUpper
attr title  "packets received from higher layer, count"
scalar UniversityNetwork.Students[24].lo0.lo 	rcvdPkFromHL:sum(packetBytes) 	0
attr interpolationmode  none
attr source  packetReceivedFromUpper
attr title  "packets received from higher layer, sum(packetBytes)"
scalar UniversityNetwork.Students[24].lo0.lo 	passedUpPk:count 	0
attr interpolationmode  none
attr source  packetSentToUpper
attr title  "packets passed to higher layer, count"
scalar UniversityNetwork.Students[24].lo0.lo 	passedUpPk:sum(packetBytes) 	0
attr interpolationmode  none
attr source  packetSentToUpper
attr title  "packets passed to higher layer, sum(packetBytes)"
scalar UniversityNetwork.Students[24].lo0.lo 	droppedPkBitError:count 	0
attr interpolationmode  none
attr source  dropPkBitError
attr title  "packets dropped/bit error, count"
scalar UniversityNetwork.Students[24].lo0.lo 	droppedPkBitError:sum(packetBytes) 	0
attr interpolationmode  none
attr source  dropPkBitError
attr title  "packets dropped/bit error, sum(packetBytes)"
scalar UniversityNetwork.Students[24].wlan[0].agent 	dropConfirm:count 	0
attr title  "dropped confirms, count"
scalar UniversityNetwork.Students[24].wlan[0].agent 	acceptConfirm:count 	6
attr title  "accepted confirms, count"
scalar UniversityNetwork.Students[24].wlan[0].agent 	sentRequest:count 	6
attr title  "sent requests, count"
scalar UniversityNetwork.Students[24].wlan[0].mgmt 	dropPkByQueue:count 	0
attr interpolationmode  none
attr source  dropPkByQueue
attr title  "packets dropped by queue, count"
scalar UniversityNetwork.Students[24].wlan[0].mgmt 	dropPkByQueue:sum(packetBytes) 	0
attr interpolationmode  none
attr source  dropPkByQueue
attr title  "packets dropped by queue, sum(packetBytes)"
scalar UniversityNetwork.Students[24].wlan[0].mgmt 	dataQueueLen:max 	5
attr interpolationmode  sample-hold
attr title  "data queue length, max"
scalar UniversityNetwork.Students[24].wlan[0].mgmt 	dataQueueLen:timeavg 	0.00044922292419333
attr interpolationmode  sample-hold
attr title  "data queue length, timeavg"
scalar UniversityNetwork.Students[24].wlan[0].mac 	"number of received packets" 	4277
scalar UniversityNetwork.Students[24].wlan[0].mac 	"number of collisions" 	36246
scalar UniversityNetwork.Students[24].wlan[0].mac 	"number of internal collisions" 	0
scalar UniversityNetwork.Students[24].wlan[0].mac 	"number of retry for AC 0" 	282
scalar UniversityNetwork.Students[24].wlan[0].mac 	"sent and received bits" 	2879376
scalar UniversityNetwork.Students[24].wlan[0].mac 	"sent packet within AC 0" 	4281
scalar UniversityNetwork.Students[24].wlan[0].mac 	"sent in TXOP " 	0
scalar UniversityNetwork.Students[24].wlan[0].mac 	"sentWithoutRetry AC 0" 	4025
scalar UniversityNetwork.Students[24].wlan[0].mac 	"numGivenUp AC 0" 	0
scalar UniversityNetwork.Students[24].wlan[0].mac 	"numDropped AC 0" 	0
scalar UniversityNetwork.Students[24].wlan[0].mac 	rcvdPkFromHL:count 	4283
attr interpolationmode  none
attr source  packetReceivedFromUpper
attr title  "packets received from higher layer, count"
scalar UniversityNetwork.Students[24].wlan[0].mac 	rcvdPkFromHL:sum(packetBytes) 	359922
attr interpolationmode  none
attr source  packetReceivedFromUpper
attr title  "packets received from higher layer, sum(packetBytes)"
scalar UniversityNetwork.Students[24].wlan[0].mac 	passedUpPk:count 	7227
attr interpolationmode  none
attr source  packetSentToUpper
attr title  "packets passed to higher layer, count"
scalar UniversityNetwork.Students[24].wlan[0].mac 	passedUpPk:sum(packetBytes) 	6688276
attr interpolationmode  none
attr source  packetSentToUpper
attr title  "packets passed to higher layer, sum(packetBytes)"
scalar UniversityNetwork.Students[24].wlan[0].mac 	rcvdPkFromLL:count 	1093353
attr interpolationmode  none
attr source  packetReceivedFromLower
attr title  "packets received from lower layer, count"
scalar UniversityNetwork.Students[24].wlan[0].mac 	rcvdPkFromLL:sum(packetBytes) 	484328522
attr interpolationmode  none
attr source  packetReceivedFromLower
attr title  "packets received from lower layer, sum(packetBytes)"
scalar UniversityNetwork.Students[24].wlan[0].mac 	sentDownPk:count 	8842
attr interpolationmode  none
attr source  packetSentToLower
attr title  "packets sent to lower layer, count"
scalar UniversityNetwork.Students[24].wlan[0].mac 	sentDownPk:sum(packetBytes) 	445704
attr interpolationmode  none
attr source  packetSentToLower
attr title  "packets sent to lower layer, sum(packetBytes)"
scalar UniversityNetwork.Students[24].wlan[0].radio 	lossRate:min 	0
attr interpolationmode  backward-sample-hold
attr title  "packet loss rate, min"
scalar UniversityNetwork.Students[24].wlan[0].radio 	lossRate:max 	0.2
attr interpolationmode  backward-sample-hold
attr title  "packet loss rate, max"
scalar UniversityNetwork.Students[24].wlan[0].radio 	lossRate:timeavg 	0.032911069360675
attr interpolationmode  backward-sample-hold
attr title  "packet loss rate, timeavg"
statistic UniversityNetwork.Students[24].wlan[0].radio 	channelNo:histogram
field count 1
field mean 0
field stddev -nan
field sum 0
field sqrsum 0
field min 0
field max 0
attr interpolationmode  sample-hold
attr title  "channel no, histogram"
bin	-INF	0
bin	-0.5	0
bin	-0.46666666666667	0
bin	-0.43333333333333	0
bin	-0.4	0
bin	-0.36666666666667	0
bin	-0.33333333333333	0
bin	-0.3	0
bin	-0.26666666666667	0
bin	-0.23333333333333	0
bin	-0.2	0
bin	-0.16666666666667	0
bin	-0.13333333333333	0
bin	-0.1	0
bin	-0.066666666666667	0
bin	-0.033333333333333	0
bin	0	1
bin	0.033333333333333	0
bin	0.066666666666667	0
bin	0.1	0
bin	0.13333333333333	0
bin	0.16666666666667	0
bin	0.2	0
bin	0.23333333333333	0
bin	0.26666666666667	0
bin	0.3	0
bin	0.33333333333333	0
bin	0.36666666666667	0
bin	0.4	0
bin	0.43333333333333	0
bin	0.46666666666667	0
bin	0.5	0
scalar UniversityNetwork.Students[24].wlan[0].radio 	radioState:count 	2202922
attr interpolationmode  sample-hold
attr title  "radio state (enum), count"
scalar UniversityNetwork.Students[24].wlan[0].radio 	bitrate:min 	54000000
attr interpolationmode  sample-hold
attr title  "tx bitrate, min"
attr unit  bps
scalar UniversityNetwork.Students[24].wlan[0].radio 	bitrate:max 	54000000
attr interpolationmode  sample-hold
attr title  "tx bitrate, max"
attr unit  bps
scalar UniversityNetwork.Students[24].wlan[0].radio 	bitrate:timeavg 	54000000
attr interpolationmode  sample-hold
attr title  "tx bitrate, timeavg"
attr unit  bps
scalar UniversityNetwork.Students[24].tcpApp[0] 	numActiveSessions:max 	1
attr interpolationmode  sample-hold
attr source  sum(connect)
attr title  "number of active sessions, max"
scalar UniversityNetwork.Students[24].tcpApp[0] 	numActiveSessions:timeavg 	0.29768720897111
attr interpolationmode  sample-hold
attr source  sum(connect)
attr title  "number of active sessions, timeavg"
scalar UniversityNetwork.Students[24].tcpApp[0] 	numSessions:last 	12
attr source  sum(connect+1)/2
attr title  "total number of sessions, last"
scalar UniversityNetwork.Students[24].tcpApp[0] 	sentPk:count 	12
attr interpolationmode  none
attr source  sentPk
attr title  "packets sent, count"
scalar UniversityNetwork.Students[24].tcpApp[0] 	sentPk:sum(packetBytes) 	9000
attr interpolationmode  none
attr source  sentPk
attr title  "packets sent, sum(packetBytes)"
scalar UniversityNetwork.Students[24].tcpApp[0] 	rcvdPk:count 	12
attr interpolationmode  none
attr source  rcvdPk
attr title  "packets received, count"
scalar UniversityNetwork.Students[24].tcpApp[0] 	rcvdPk:sum(packetBytes) 	5618353
attr interpolationmode  none
attr source  rcvdPk
attr title  "packets received, sum(packetBytes)"
statistic UniversityNetwork.Students[24].tcpApp[0] 	endToEndDelay:histogram
field count 12
field mean 7.0872900342097
field stddev 10.320180002351
field sum 85.047480410516
field sqrsum 1774.3234284383
field min 0.725940328781
field max 37.152649373229
attr interpolationmode  none
attr source  messageAge(rcvdPk)
attr title  "end-to-end delay, histogram"
attr unit  s
bin	-INF	0
bin	-17.487414193443	0
bin	-15.058966923813	0
bin	-12.630519654183	0
bin	-10.202072384553	0
bin	-7.7736251149235	0
bin	-5.3451778452937	0
bin	-2.9167305756638	0
bin	-0.48828330603394	6
bin	1.9401639635959	1
bin	4.3686112332258	1
bin	6.7970585028557	2
bin	9.2255057724855	0
bin	11.653953042115	0
bin	14.082400311745	1
bin	16.510847581375	0
bin	18.939294851005	0
bin	21.367742120635	0
bin	23.796189390265	0
bin	26.224636659895	0
bin	28.653083929524	0
bin	31.081531199154	0
bin	33.509978468784	0
bin	35.938425738414	1
bin	38.366873008044	0
bin	40.795320277674	0
bin	43.223767547304	0
bin	45.652214816934	0
bin	48.080662086563	0
bin	50.509109356193	0
bin	52.937556625823	0
bin	55.366003895453	0
