version 2
run TwentyFiveStudentsNOCCTV-10-20160815-02:01:47-31466
attr configname TwentyFiveStudentsNOCCTV
attr datetime 20160815-02:01:47
attr experiment TwentyFiveStudentsNOCCTV
attr inifile omnetpp.ini
attr iterationvars ""
attr iterationvars2 $repetition=10
attr measurement ""
attr network UniversityNetwork
attr processid 31466
attr repetition 10
attr replication #10
attr resultdir results
attr runnumber 10
attr seedset 10

scalar UniversityNetwork.CCTV.networkLayer.arp 	initiatedARPResolution:count 	0
attr title  "ARP initiated resolutions, count"
scalar UniversityNetwork.CCTV.networkLayer.arp 	sentReply:count 	0
attr title  "ARP replies sent, count"
scalar UniversityNetwork.CCTV.networkLayer.arp 	sentReq:count 	0
attr title  "ARP request sent, count"
scalar UniversityNetwork.CCTV.networkLayer.arp 	failedARPResolution:count 	0
attr title  "ARP failed resolutions, count"
scalar UniversityNetwork.CCTV.networkLayer.arp 	completedARPResolution:count 	0
attr title  "ARP completed resolutions, count"
scalar UniversityNetwork.CCTV.lo0.lo 	rcvdPkFromHL:count 	0
attr interpolationmode  none
attr source  packetReceivedFromUpper
attr title  "packets received from higher layer, count"
scalar UniversityNetwork.CCTV.lo0.lo 	rcvdPkFromHL:sum(packetBytes) 	0
attr interpolationmode  none
attr source  packetReceivedFromUpper
attr title  "packets received from higher layer, sum(packetBytes)"
scalar UniversityNetwork.CCTV.lo0.lo 	passedUpPk:count 	0
attr interpolationmode  none
attr source  packetSentToUpper
attr title  "packets passed to higher layer, count"
scalar UniversityNetwork.CCTV.lo0.lo 	passedUpPk:sum(packetBytes) 	0
attr interpolationmode  none
attr source  packetSentToUpper
attr title  "packets passed to higher layer, sum(packetBytes)"
scalar UniversityNetwork.CCTV.lo0.lo 	droppedPkBitError:count 	0
attr interpolationmode  none
attr source  dropPkBitError
attr title  "packets dropped/bit error, count"
scalar UniversityNetwork.CCTV.lo0.lo 	droppedPkBitError:sum(packetBytes) 	0
attr interpolationmode  none
attr source  dropPkBitError
attr title  "packets dropped/bit error, sum(packetBytes)"
scalar UniversityNetwork.CCTV.ppp[0].inputHook[0] 	duration 	300
scalar UniversityNetwork.CCTV.ppp[0].inputHook[0] 	"total packets" 	0
scalar UniversityNetwork.CCTV.ppp[0].inputHook[0] 	"total bits" 	0
scalar UniversityNetwork.CCTV.ppp[0].inputHook[0] 	"avg throughput (bit/s)" 	0
scalar UniversityNetwork.CCTV.ppp[0].inputHook[0] 	"avg packets/s" 	0
statistic UniversityNetwork.CCTV.ppp[0].queue 	queueingTime:histogram
field count 0
field mean -nan
field stddev -nan
field sum 0
field sqrsum 0
field min -nan
field max -nan
attr interpolationmode  none
attr title  "queueing time, histogram"
bin	-INF	0
bin	-0.5	0
bin	-0.46666666666667	0
bin	-0.43333333333333	0
bin	-0.4	0
bin	-0.36666666666667	0
bin	-0.33333333333333	0
bin	-0.3	0
bin	-0.26666666666667	0
bin	-0.23333333333333	0
bin	-0.2	0
bin	-0.16666666666667	0
bin	-0.13333333333333	0
bin	-0.1	0
bin	-0.066666666666667	0
bin	-0.033333333333333	0
bin	0	0
bin	0.033333333333333	0
bin	0.066666666666667	0
bin	0.1	0
bin	0.13333333333333	0
bin	0.16666666666667	0
bin	0.2	0
bin	0.23333333333333	0
bin	0.26666666666667	0
bin	0.3	0
bin	0.33333333333333	0
bin	0.36666666666667	0
bin	0.4	0
bin	0.43333333333333	0
bin	0.46666666666667	0
bin	0.5	0
scalar UniversityNetwork.CCTV.ppp[0].queue 	dropPk:count 	0
attr interpolationmode  none
attr source  dropPkByQueue
attr title  "dropped packets, count"
scalar UniversityNetwork.CCTV.ppp[0].queue 	dropPk:sum(packetBytes) 	0
attr interpolationmode  none
attr source  dropPkByQueue
attr title  "dropped packets, sum(packetBytes)"
scalar UniversityNetwork.CCTV.ppp[0].queue 	queueLength:max 	0
attr interpolationmode  sample-hold
attr title  "queue length, max"
scalar UniversityNetwork.CCTV.ppp[0].queue 	queueLength:timeavg 	0
attr interpolationmode  sample-hold
attr title  "queue length, timeavg"
scalar UniversityNetwork.CCTV.ppp[0].queue 	rcvdPk:count 	0
attr interpolationmode  none
attr title  "received packets, count"
scalar UniversityNetwork.CCTV.ppp[0].queue 	rcvdPk:sum(packetBytes) 	0
attr interpolationmode  none
attr title  "received packets, sum(packetBytes)"
scalar UniversityNetwork.CCTV.ppp[0].ppp 	rcvdPkFromHL:count 	0
attr interpolationmode  none
attr source  packetReceivedFromUpper
attr title  "packets received from higher layer, count"
scalar UniversityNetwork.CCTV.ppp[0].ppp 	rcvdPkFromHL:sum(packetBytes) 	0
attr interpolationmode  none
attr source  packetReceivedFromUpper
attr title  "packets received from higher layer, sum(packetBytes)"
scalar UniversityNetwork.CCTV.ppp[0].ppp 	passedUpPk:count 	0
attr interpolationmode  none
attr source  packetSentToUpper
attr title  "packets passed to higher layer, count"
scalar UniversityNetwork.CCTV.ppp[0].ppp 	passedUpPk:sum(packetBytes) 	0
attr interpolationmode  none
attr source  packetSentToUpper
attr title  "packets passed to higher layer, sum(packetBytes)"
scalar UniversityNetwork.CCTV.ppp[0].ppp 	txPk:count 	0
attr interpolationmode  none
attr source  packetSentToLower
attr title  "packets transmitted, count"
scalar UniversityNetwork.CCTV.ppp[0].ppp 	txPk:sum(packetBytes) 	0
attr interpolationmode  none
attr source  packetSentToLower
attr title  "packets transmitted, sum(packetBytes)"
scalar UniversityNetwork.CCTV.ppp[0].ppp 	droppedPkBitError:count 	0
attr interpolationmode  none
attr source  dropPkBitError
attr title  "packets dropped/bit error, count"
scalar UniversityNetwork.CCTV.ppp[0].ppp 	droppedPkBitError:sum(packetBytes) 	0
attr interpolationmode  none
attr source  dropPkBitError
attr title  "packets dropped/bit error, sum(packetBytes)"
scalar UniversityNetwork.CCTV.ppp[0].ppp 	droppedPkIfaceDown:count 	0
attr interpolationmode  none
attr source  dropPkIfaceDown
attr title  "packets dropped/interface down, count"
scalar UniversityNetwork.CCTV.ppp[0].ppp 	droppedPkIfaceDown:sum(packetBytes) 	0
attr interpolationmode  none
attr source  dropPkIfaceDown
attr title  "packets dropped/interface down, sum(packetBytes)"
scalar UniversityNetwork.CCTV.ppp[0].ppp 	rxPkOk:count 	0
attr interpolationmode  none
attr source  rxPkOk
attr title  "packets received OK, count"
scalar UniversityNetwork.CCTV.ppp[0].ppp 	rxPkOk:sum(packetBytes) 	0
attr interpolationmode  none
attr source  rxPkOk
attr title  "packets received OK, sum(packetBytes)"
scalar UniversityNetwork.CCTV.ppp[0].ppp 	txState:timeavg 	0
attr interpolationmode  sample-hold
attr title  "tx state, timeavg"
scalar UniversityNetwork.CCTVMonitoring.networkLayer.arp 	initiatedARPResolution:count 	0
attr title  "ARP initiated resolutions, count"
scalar UniversityNetwork.CCTVMonitoring.networkLayer.arp 	sentReply:count 	0
attr title  "ARP replies sent, count"
scalar UniversityNetwork.CCTVMonitoring.networkLayer.arp 	sentReq:count 	0
attr title  "ARP request sent, count"
scalar UniversityNetwork.CCTVMonitoring.networkLayer.arp 	failedARPResolution:count 	0
attr title  "ARP failed resolutions, count"
scalar UniversityNetwork.CCTVMonitoring.networkLayer.arp 	completedARPResolution:count 	0
attr title  "ARP completed resolutions, count"
scalar UniversityNetwork.CCTVMonitoring.lo0.lo 	rcvdPkFromHL:count 	0
attr interpolationmode  none
attr source  packetReceivedFromUpper
attr title  "packets received from higher layer, count"
scalar UniversityNetwork.CCTVMonitoring.lo0.lo 	rcvdPkFromHL:sum(packetBytes) 	0
attr interpolationmode  none
attr source  packetReceivedFromUpper
attr title  "packets received from higher layer, sum(packetBytes)"
scalar UniversityNetwork.CCTVMonitoring.lo0.lo 	passedUpPk:count 	0
attr interpolationmode  none
attr source  packetSentToUpper
attr title  "packets passed to higher layer, count"
scalar UniversityNetwork.CCTVMonitoring.lo0.lo 	passedUpPk:sum(packetBytes) 	0
attr interpolationmode  none
attr source  packetSentToUpper
attr title  "packets passed to higher layer, sum(packetBytes)"
scalar UniversityNetwork.CCTVMonitoring.lo0.lo 	droppedPkBitError:count 	0
attr interpolationmode  none
attr source  dropPkBitError
attr title  "packets dropped/bit error, count"
scalar UniversityNetwork.CCTVMonitoring.lo0.lo 	droppedPkBitError:sum(packetBytes) 	0
attr interpolationmode  none
attr source  dropPkBitError
attr title  "packets dropped/bit error, sum(packetBytes)"
scalar UniversityNetwork.CCTVMonitoring.ppp[0].inputHook[0] 	duration 	300
scalar UniversityNetwork.CCTVMonitoring.ppp[0].inputHook[0] 	"total packets" 	0
scalar UniversityNetwork.CCTVMonitoring.ppp[0].inputHook[0] 	"total bits" 	0
scalar UniversityNetwork.CCTVMonitoring.ppp[0].inputHook[0] 	"avg throughput (bit/s)" 	0
scalar UniversityNetwork.CCTVMonitoring.ppp[0].inputHook[0] 	"avg packets/s" 	0
statistic UniversityNetwork.CCTVMonitoring.ppp[0].queue 	queueingTime:histogram
field count 0
field mean -nan
field stddev -nan
field sum 0
field sqrsum 0
field min -nan
field max -nan
attr interpolationmode  none
attr title  "queueing time, histogram"
bin	-INF	0
bin	-0.5	0
bin	-0.46666666666667	0
bin	-0.43333333333333	0
bin	-0.4	0
bin	-0.36666666666667	0
bin	-0.33333333333333	0
bin	-0.3	0
bin	-0.26666666666667	0
bin	-0.23333333333333	0
bin	-0.2	0
bin	-0.16666666666667	0
bin	-0.13333333333333	0
bin	-0.1	0
bin	-0.066666666666667	0
bin	-0.033333333333333	0
bin	0	0
bin	0.033333333333333	0
bin	0.066666666666667	0
bin	0.1	0
bin	0.13333333333333	0
bin	0.16666666666667	0
bin	0.2	0
bin	0.23333333333333	0
bin	0.26666666666667	0
bin	0.3	0
bin	0.33333333333333	0
bin	0.36666666666667	0
bin	0.4	0
bin	0.43333333333333	0
bin	0.46666666666667	0
bin	0.5	0
scalar UniversityNetwork.CCTVMonitoring.ppp[0].queue 	dropPk:count 	0
attr interpolationmode  none
attr source  dropPkByQueue
attr title  "dropped packets, count"
scalar UniversityNetwork.CCTVMonitoring.ppp[0].queue 	dropPk:sum(packetBytes) 	0
attr interpolationmode  none
attr source  dropPkByQueue
attr title  "dropped packets, sum(packetBytes)"
scalar UniversityNetwork.CCTVMonitoring.ppp[0].queue 	queueLength:max 	0
attr interpolationmode  sample-hold
attr title  "queue length, max"
scalar UniversityNetwork.CCTVMonitoring.ppp[0].queue 	queueLength:timeavg 	0
attr interpolationmode  sample-hold
attr title  "queue length, timeavg"
scalar UniversityNetwork.CCTVMonitoring.ppp[0].queue 	rcvdPk:count 	0
attr interpolationmode  none
attr title  "received packets, count"
scalar UniversityNetwork.CCTVMonitoring.ppp[0].queue 	rcvdPk:sum(packetBytes) 	0
attr interpolationmode  none
attr title  "received packets, sum(packetBytes)"
scalar UniversityNetwork.CCTVMonitoring.ppp[0].ppp 	rcvdPkFromHL:count 	0
attr interpolationmode  none
attr source  packetReceivedFromUpper
attr title  "packets received from higher layer, count"
scalar UniversityNetwork.CCTVMonitoring.ppp[0].ppp 	rcvdPkFromHL:sum(packetBytes) 	0
attr interpolationmode  none
attr source  packetReceivedFromUpper
attr title  "packets received from higher layer, sum(packetBytes)"
scalar UniversityNetwork.CCTVMonitoring.ppp[0].ppp 	passedUpPk:count 	0
attr interpolationmode  none
attr source  packetSentToUpper
attr title  "packets passed to higher layer, count"
scalar UniversityNetwork.CCTVMonitoring.ppp[0].ppp 	passedUpPk:sum(packetBytes) 	0
attr interpolationmode  none
attr source  packetSentToUpper
attr title  "packets passed to higher layer, sum(packetBytes)"
scalar UniversityNetwork.CCTVMonitoring.ppp[0].ppp 	txPk:count 	0
attr interpolationmode  none
attr source  packetSentToLower
attr title  "packets transmitted, count"
scalar UniversityNetwork.CCTVMonitoring.ppp[0].ppp 	txPk:sum(packetBytes) 	0
attr interpolationmode  none
attr source  packetSentToLower
attr title  "packets transmitted, sum(packetBytes)"
scalar UniversityNetwork.CCTVMonitoring.ppp[0].ppp 	droppedPkBitError:count 	0
attr interpolationmode  none
attr source  dropPkBitError
attr title  "packets dropped/bit error, count"
scalar UniversityNetwork.CCTVMonitoring.ppp[0].ppp 	droppedPkBitError:sum(packetBytes) 	0
attr interpolationmode  none
attr source  dropPkBitError
attr title  "packets dropped/bit error, sum(packetBytes)"
scalar UniversityNetwork.CCTVMonitoring.ppp[0].ppp 	droppedPkIfaceDown:count 	0
attr interpolationmode  none
attr source  dropPkIfaceDown
attr title  "packets dropped/interface down, count"
scalar UniversityNetwork.CCTVMonitoring.ppp[0].ppp 	droppedPkIfaceDown:sum(packetBytes) 	0
attr interpolationmode  none
attr source  dropPkIfaceDown
attr title  "packets dropped/interface down, sum(packetBytes)"
scalar UniversityNetwork.CCTVMonitoring.ppp[0].ppp 	rxPkOk:count 	0
attr interpolationmode  none
attr source  rxPkOk
attr title  "packets received OK, count"
scalar UniversityNetwork.CCTVMonitoring.ppp[0].ppp 	rxPkOk:sum(packetBytes) 	0
attr interpolationmode  none
attr source  rxPkOk
attr title  "packets received OK, sum(packetBytes)"
scalar UniversityNetwork.CCTVMonitoring.ppp[0].ppp 	txState:timeavg 	0
attr interpolationmode  sample-hold
attr title  "tx state, timeavg"
scalar UniversityNetwork.main.networkLayer.arp 	initiatedARPResolution:count 	0
attr title  "ARP initiated resolutions, count"
scalar UniversityNetwork.main.networkLayer.arp 	sentReply:count 	0
attr title  "ARP replies sent, count"
scalar UniversityNetwork.main.networkLayer.arp 	sentReq:count 	0
attr title  "ARP request sent, count"
scalar UniversityNetwork.main.networkLayer.arp 	failedARPResolution:count 	0
attr title  "ARP failed resolutions, count"
scalar UniversityNetwork.main.networkLayer.arp 	completedARPResolution:count 	0
attr title  "ARP completed resolutions, count"
scalar UniversityNetwork.main.lo0.lo 	rcvdPkFromHL:count 	0
attr interpolationmode  none
attr source  packetReceivedFromUpper
attr title  "packets received from higher layer, count"
scalar UniversityNetwork.main.lo0.lo 	rcvdPkFromHL:sum(packetBytes) 	0
attr interpolationmode  none
attr source  packetReceivedFromUpper
attr title  "packets received from higher layer, sum(packetBytes)"
scalar UniversityNetwork.main.lo0.lo 	passedUpPk:count 	0
attr interpolationmode  none
attr source  packetSentToUpper
attr title  "packets passed to higher layer, count"
scalar UniversityNetwork.main.lo0.lo 	passedUpPk:sum(packetBytes) 	0
attr interpolationmode  none
attr source  packetSentToUpper
attr title  "packets passed to higher layer, sum(packetBytes)"
scalar UniversityNetwork.main.lo0.lo 	droppedPkBitError:count 	0
attr interpolationmode  none
attr source  dropPkBitError
attr title  "packets dropped/bit error, count"
scalar UniversityNetwork.main.lo0.lo 	droppedPkBitError:sum(packetBytes) 	0
attr interpolationmode  none
attr source  dropPkBitError
attr title  "packets dropped/bit error, sum(packetBytes)"
scalar UniversityNetwork.main.ppp[0].inputHook[0] 	duration 	300
scalar UniversityNetwork.main.ppp[0].inputHook[0] 	"total packets" 	263240
scalar UniversityNetwork.main.ppp[0].inputHook[0] 	"total bits" 	1497189952
scalar UniversityNetwork.main.ppp[0].inputHook[0] 	"avg throughput (bit/s)" 	4990633.1733333
scalar UniversityNetwork.main.ppp[0].inputHook[0] 	"avg packets/s" 	877.46666666667
statistic UniversityNetwork.main.ppp[0].queue 	queueingTime:histogram
field count 267443
field mean 0.0026409217789711
field stddev 0.0067843561031502
field sum 706.29604333336
field sqrsum 14.17495597789
field min 0
field max 0.040184838521
attr interpolationmode  none
attr title  "queueing time, histogram"
bin	-INF	0
bin	-0.0005292042495	0
bin	-0.0004586436829	0
bin	-0.0003880831163	0
bin	-0.0003175225497	0
bin	-0.0002469619831	0
bin	-0.0001764014165	0
bin	-0.0001058408499	0
bin	-3.52802833e-05	146804
bin	3.52802833e-05	3972
bin	0.0001058408499	3846
bin	0.0001764014165	3027
bin	0.0002469619831	2369
bin	0.0003175225497	1760
bin	0.0003880831163	1722
bin	0.0004586436829	2261
bin	0.0005292042495	2947
bin	0.0005997648161	2798
bin	0.0006703253827	1635
bin	0.0007408859493	1798
bin	0.0008114465159	1870
bin	0.0008820070825	12160
bin	0.0009525676491	3339
bin	0.0010231282157	1942
bin	0.0010936887823	2062
bin	0.0011642493489	1637
bin	0.0012348099155	1129
bin	0.0013053704821	1051
bin	0.0013759310487	1150
bin	0.0014464916153	1421
bin	0.0015170521819	1275
bin	0.0015876127485	63468
scalar UniversityNetwork.main.ppp[0].queue 	dropPk:count 	1384
attr interpolationmode  none
attr source  dropPkByQueue
attr title  "dropped packets, count"
scalar UniversityNetwork.main.ppp[0].queue 	dropPk:sum(packetBytes) 	2059273
attr interpolationmode  none
attr source  dropPkByQueue
attr title  "dropped packets, sum(packetBytes)"
scalar UniversityNetwork.main.ppp[0].queue 	queueLength:max 	40
attr interpolationmode  sample-hold
attr title  "queue length, max"
scalar UniversityNetwork.main.ppp[0].queue 	queueLength:timeavg 	2.3546596466089
attr interpolationmode  sample-hold
attr title  "queue length, timeavg"
scalar UniversityNetwork.main.ppp[0].queue 	rcvdPk:count 	268863
attr interpolationmode  none
attr title  "received packets, count"
scalar UniversityNetwork.main.ppp[0].queue 	rcvdPk:sum(packetBytes) 	233364750
attr interpolationmode  none
attr title  "received packets, sum(packetBytes)"
scalar UniversityNetwork.main.ppp[0].ppp 	rcvdPkFromHL:count 	267443
attr interpolationmode  none
attr source  packetReceivedFromUpper
attr title  "packets received from higher layer, count"
scalar UniversityNetwork.main.ppp[0].ppp 	rcvdPkFromHL:sum(packetBytes) 	231252937
attr interpolationmode  none
attr source  packetReceivedFromUpper
attr title  "packets received from higher layer, sum(packetBytes)"
scalar UniversityNetwork.main.ppp[0].ppp 	passedUpPk:count 	263240
attr interpolationmode  none
attr source  packetSentToUpper
attr title  "packets passed to higher layer, count"
scalar UniversityNetwork.main.ppp[0].ppp 	passedUpPk:sum(packetBytes) 	187148744
attr interpolationmode  none
attr source  packetSentToUpper
attr title  "packets passed to higher layer, sum(packetBytes)"
scalar UniversityNetwork.main.ppp[0].ppp 	txPk:count 	267443
attr interpolationmode  none
attr source  packetSentToLower
attr title  "packets transmitted, count"
scalar UniversityNetwork.main.ppp[0].ppp 	txPk:sum(packetBytes) 	233125038
attr interpolationmode  none
attr source  packetSentToLower
attr title  "packets transmitted, sum(packetBytes)"
scalar UniversityNetwork.main.ppp[0].ppp 	droppedPkBitError:count 	0
attr interpolationmode  none
attr source  dropPkBitError
attr title  "packets dropped/bit error, count"
scalar UniversityNetwork.main.ppp[0].ppp 	droppedPkBitError:sum(packetBytes) 	0
attr interpolationmode  none
attr source  dropPkBitError
attr title  "packets dropped/bit error, sum(packetBytes)"
scalar UniversityNetwork.main.ppp[0].ppp 	droppedPkIfaceDown:count 	0
attr interpolationmode  none
attr source  dropPkIfaceDown
attr title  "packets dropped/interface down, count"
scalar UniversityNetwork.main.ppp[0].ppp 	droppedPkIfaceDown:sum(packetBytes) 	0
attr interpolationmode  none
attr source  dropPkIfaceDown
attr title  "packets dropped/interface down, sum(packetBytes)"
scalar UniversityNetwork.main.ppp[0].ppp 	rxPkOk:count 	263240
attr interpolationmode  none
attr source  rxPkOk
attr title  "packets received OK, count"
scalar UniversityNetwork.main.ppp[0].ppp 	rxPkOk:sum(packetBytes) 	188991424
attr interpolationmode  none
attr source  rxPkOk
attr title  "packets received OK, sum(packetBytes)"
scalar UniversityNetwork.main.ppp[0].ppp 	txState:timeavg 	0.51805440987047
attr interpolationmode  sample-hold
attr title  "tx state, timeavg"
scalar UniversityNetwork.main.ppp[1].inputHook[0] 	duration 	300
scalar UniversityNetwork.main.ppp[1].inputHook[0] 	"total packets" 	0
scalar UniversityNetwork.main.ppp[1].inputHook[0] 	"total bits" 	0
scalar UniversityNetwork.main.ppp[1].inputHook[0] 	"avg throughput (bit/s)" 	0
scalar UniversityNetwork.main.ppp[1].inputHook[0] 	"avg packets/s" 	0
statistic UniversityNetwork.main.ppp[1].queue 	queueingTime:histogram
field count 0
field mean -nan
field stddev -nan
field sum 0
field sqrsum 0
field min -nan
field max -nan
attr interpolationmode  none
attr title  "queueing time, histogram"
bin	-INF	0
bin	-0.5	0
bin	-0.46666666666667	0
bin	-0.43333333333333	0
bin	-0.4	0
bin	-0.36666666666667	0
bin	-0.33333333333333	0
bin	-0.3	0
bin	-0.26666666666667	0
bin	-0.23333333333333	0
bin	-0.2	0
bin	-0.16666666666667	0
bin	-0.13333333333333	0
bin	-0.1	0
bin	-0.066666666666667	0
bin	-0.033333333333333	0
bin	0	0
bin	0.033333333333333	0
bin	0.066666666666667	0
bin	0.1	0
bin	0.13333333333333	0
bin	0.16666666666667	0
bin	0.2	0
bin	0.23333333333333	0
bin	0.26666666666667	0
bin	0.3	0
bin	0.33333333333333	0
bin	0.36666666666667	0
bin	0.4	0
bin	0.43333333333333	0
bin	0.46666666666667	0
bin	0.5	0
scalar UniversityNetwork.main.ppp[1].queue 	dropPk:count 	0
attr interpolationmode  none
attr source  dropPkByQueue
attr title  "dropped packets, count"
scalar UniversityNetwork.main.ppp[1].queue 	dropPk:sum(packetBytes) 	0
attr interpolationmode  none
attr source  dropPkByQueue
attr title  "dropped packets, sum(packetBytes)"
scalar UniversityNetwork.main.ppp[1].queue 	queueLength:max 	0
attr interpolationmode  sample-hold
attr title  "queue length, max"
scalar UniversityNetwork.main.ppp[1].queue 	queueLength:timeavg 	0
attr interpolationmode  sample-hold
attr title  "queue length, timeavg"
scalar UniversityNetwork.main.ppp[1].queue 	rcvdPk:count 	0
attr interpolationmode  none
attr title  "received packets, count"
scalar UniversityNetwork.main.ppp[1].queue 	rcvdPk:sum(packetBytes) 	0
attr interpolationmode  none
attr title  "received packets, sum(packetBytes)"
scalar UniversityNetwork.main.ppp[1].ppp 	rcvdPkFromHL:count 	0
attr interpolationmode  none
attr source  packetReceivedFromUpper
attr title  "packets received from higher layer, count"
scalar UniversityNetwork.main.ppp[1].ppp 	rcvdPkFromHL:sum(packetBytes) 	0
attr interpolationmode  none
attr source  packetReceivedFromUpper
attr title  "packets received from higher layer, sum(packetBytes)"
scalar UniversityNetwork.main.ppp[1].ppp 	passedUpPk:count 	0
attr interpolationmode  none
attr source  packetSentToUpper
attr title  "packets passed to higher layer, count"
scalar UniversityNetwork.main.ppp[1].ppp 	passedUpPk:sum(packetBytes) 	0
attr interpolationmode  none
attr source  packetSentToUpper
attr title  "packets passed to higher layer, sum(packetBytes)"
scalar UniversityNetwork.main.ppp[1].ppp 	txPk:count 	0
attr interpolationmode  none
attr source  packetSentToLower
attr title  "packets transmitted, count"
scalar UniversityNetwork.main.ppp[1].ppp 	txPk:sum(packetBytes) 	0
attr interpolationmode  none
attr source  packetSentToLower
attr title  "packets transmitted, sum(packetBytes)"
scalar UniversityNetwork.main.ppp[1].ppp 	droppedPkBitError:count 	0
attr interpolationmode  none
attr source  dropPkBitError
attr title  "packets dropped/bit error, count"
scalar UniversityNetwork.main.ppp[1].ppp 	droppedPkBitError:sum(packetBytes) 	0
attr interpolationmode  none
attr source  dropPkBitError
attr title  "packets dropped/bit error, sum(packetBytes)"
scalar UniversityNetwork.main.ppp[1].ppp 	droppedPkIfaceDown:count 	0
attr interpolationmode  none
attr source  dropPkIfaceDown
attr title  "packets dropped/interface down, count"
scalar UniversityNetwork.main.ppp[1].ppp 	droppedPkIfaceDown:sum(packetBytes) 	0
attr interpolationmode  none
attr source  dropPkIfaceDown
attr title  "packets dropped/interface down, sum(packetBytes)"
scalar UniversityNetwork.main.ppp[1].ppp 	rxPkOk:count 	0
attr interpolationmode  none
attr source  rxPkOk
attr title  "packets received OK, count"
scalar UniversityNetwork.main.ppp[1].ppp 	rxPkOk:sum(packetBytes) 	0
attr interpolationmode  none
attr source  rxPkOk
attr title  "packets received OK, sum(packetBytes)"
scalar UniversityNetwork.main.ppp[1].ppp 	txState:timeavg 	0
attr interpolationmode  sample-hold
attr title  "tx state, timeavg"
scalar UniversityNetwork.main.ppp[2].inputHook[0] 	duration 	300
scalar UniversityNetwork.main.ppp[2].inputHook[0] 	"total packets" 	261364
scalar UniversityNetwork.main.ppp[2].inputHook[0] 	"total bits" 	1781249424
scalar UniversityNetwork.main.ppp[2].inputHook[0] 	"avg throughput (bit/s)" 	5937498.08
scalar UniversityNetwork.main.ppp[2].inputHook[0] 	"avg packets/s" 	871.21333333333
statistic UniversityNetwork.main.ppp[2].queue 	queueingTime:histogram
field count 255740
field mean 1.1282542619183e-05
field stddev 2.9484449229681e-05
field sum 2.88539744943
field sqrsum 0.00025487690692235
field min 0
field max 8.9226667e-05
attr interpolationmode  none
attr title  "queueing time, histogram"
bin	-INF	0
bin	-4.46133335e-05	0
bin	-3.8664889033333e-05	0
bin	-3.2716444566667e-05	0
bin	-2.67680001e-05	0
bin	-2.0819555633333e-05	0
bin	-1.4871111166667e-05	0
bin	-8.9226667e-06	0
bin	-2.9742222333333e-06	222744
bin	2.9742222333333e-06	68
bin	8.9226667e-06	32
bin	1.4871111166667e-05	67
bin	2.0819555633333e-05	31
bin	2.67680001e-05	86
bin	3.2716444566667e-05	115
bin	3.8664889033333e-05	18
bin	4.46133335e-05	24
bin	5.0561777966667e-05	30
bin	5.6510222433333e-05	1022
bin	6.24586669e-05	13
bin	6.8407111366667e-05	11
bin	7.4355555833333e-05	11
bin	8.03040003e-05	156
bin	8.6252444766667e-05	31312
bin	9.2200889233333e-05	0
bin	9.81493337e-05	0
bin	0.00010409777816667	0
bin	0.00011004622263333	0
bin	0.0001159946671	0
bin	0.00012194311156667	0
bin	0.00012789155603333	0
bin	0.0001338400005	0
scalar UniversityNetwork.main.ppp[2].queue 	dropPk:count 	0
attr interpolationmode  none
attr source  dropPkByQueue
attr title  "dropped packets, count"
scalar UniversityNetwork.main.ppp[2].queue 	dropPk:sum(packetBytes) 	0
attr interpolationmode  none
attr source  dropPkByQueue
attr title  "dropped packets, sum(packetBytes)"
scalar UniversityNetwork.main.ppp[2].queue 	queueLength:max 	3
attr interpolationmode  sample-hold
attr title  "queue length, max"
scalar UniversityNetwork.main.ppp[2].queue 	queueLength:timeavg 	0.0096182305640468
attr interpolationmode  sample-hold
attr title  "queue length, timeavg"
scalar UniversityNetwork.main.ppp[2].queue 	rcvdPk:count 	255741
attr interpolationmode  none
attr title  "received packets, count"
scalar UniversityNetwork.main.ppp[2].queue 	rcvdPk:sum(packetBytes) 	176440172
attr interpolationmode  none
attr title  "received packets, sum(packetBytes)"
scalar UniversityNetwork.main.ppp[2].ppp 	rcvdPkFromHL:count 	255740
attr interpolationmode  none
attr source  packetReceivedFromUpper
attr title  "packets received from higher layer, count"
scalar UniversityNetwork.main.ppp[2].ppp 	rcvdPkFromHL:sum(packetBytes) 	176440132
attr interpolationmode  none
attr source  packetReceivedFromUpper
attr title  "packets received from higher layer, sum(packetBytes)"
scalar UniversityNetwork.main.ppp[2].ppp 	passedUpPk:count 	261364
attr interpolationmode  none
attr source  packetSentToUpper
attr title  "packets passed to higher layer, count"
scalar UniversityNetwork.main.ppp[2].ppp 	passedUpPk:sum(packetBytes) 	222656178
attr interpolationmode  none
attr source  packetSentToUpper
attr title  "packets passed to higher layer, sum(packetBytes)"
scalar UniversityNetwork.main.ppp[2].ppp 	txPk:count 	255740
attr interpolationmode  none
attr source  packetSentToLower
attr title  "packets transmitted, count"
scalar UniversityNetwork.main.ppp[2].ppp 	txPk:sum(packetBytes) 	178230312
attr interpolationmode  none
attr source  packetSentToLower
attr title  "packets transmitted, sum(packetBytes)"
scalar UniversityNetwork.main.ppp[2].ppp 	droppedPkBitError:count 	0
attr interpolationmode  none
attr source  dropPkBitError
attr title  "packets dropped/bit error, count"
scalar UniversityNetwork.main.ppp[2].ppp 	droppedPkBitError:sum(packetBytes) 	0
attr interpolationmode  none
attr source  dropPkBitError
attr title  "packets dropped/bit error, sum(packetBytes)"
scalar UniversityNetwork.main.ppp[2].ppp 	droppedPkIfaceDown:count 	0
attr interpolationmode  none
attr source  dropPkIfaceDown
attr title  "packets dropped/interface down, count"
scalar UniversityNetwork.main.ppp[2].ppp 	droppedPkIfaceDown:sum(packetBytes) 	0
attr interpolationmode  none
attr source  dropPkIfaceDown
attr title  "packets dropped/interface down, sum(packetBytes)"
scalar UniversityNetwork.main.ppp[2].ppp 	rxPkOk:count 	261364
attr interpolationmode  none
attr source  rxPkOk
attr title  "packets received OK, count"
scalar UniversityNetwork.main.ppp[2].ppp 	rxPkOk:sum(packetBytes) 	224485726
attr interpolationmode  none
attr source  rxPkOk
attr title  "packets received OK, sum(packetBytes)"
scalar UniversityNetwork.main.ppp[2].ppp 	txState:timeavg 	0.047528024843662
attr interpolationmode  sample-hold
attr title  "tx state, timeavg"
scalar UniversityNetwork.main.ppp[3].inputHook[0] 	duration 	300
scalar UniversityNetwork.main.ppp[3].inputHook[0] 	"total packets" 	7499
scalar UniversityNetwork.main.ppp[3].inputHook[0] 	"total bits" 	85668576
scalar UniversityNetwork.main.ppp[3].inputHook[0] 	"avg throughput (bit/s)" 	285561.92
scalar UniversityNetwork.main.ppp[3].inputHook[0] 	"avg packets/s" 	24.996666666667
statistic UniversityNetwork.main.ppp[3].queue 	queueingTime:histogram
field count 7499
field mean 0
field stddev 0
field sum 0
field sqrsum 0
field min 0
field max 0
attr interpolationmode  none
attr title  "queueing time, histogram"
bin	-INF	0
bin	-0.5	0
bin	-0.46666666666667	0
bin	-0.43333333333333	0
bin	-0.4	0
bin	-0.36666666666667	0
bin	-0.33333333333333	0
bin	-0.3	0
bin	-0.26666666666667	0
bin	-0.23333333333333	0
bin	-0.2	0
bin	-0.16666666666667	0
bin	-0.13333333333333	0
bin	-0.1	0
bin	-0.066666666666667	0
bin	-0.033333333333333	0
bin	0	7499
bin	0.033333333333333	0
bin	0.066666666666667	0
bin	0.1	0
bin	0.13333333333333	0
bin	0.16666666666667	0
bin	0.2	0
bin	0.23333333333333	0
bin	0.26666666666667	0
bin	0.3	0
bin	0.33333333333333	0
bin	0.36666666666667	0
bin	0.4	0
bin	0.43333333333333	0
bin	0.46666666666667	0
bin	0.5	0
scalar UniversityNetwork.main.ppp[3].queue 	dropPk:count 	0
attr interpolationmode  none
attr source  dropPkByQueue
attr title  "dropped packets, count"
scalar UniversityNetwork.main.ppp[3].queue 	dropPk:sum(packetBytes) 	0
attr interpolationmode  none
attr source  dropPkByQueue
attr title  "dropped packets, sum(packetBytes)"
scalar UniversityNetwork.main.ppp[3].queue 	queueLength:max 	0
attr interpolationmode  sample-hold
attr title  "queue length, max"
scalar UniversityNetwork.main.ppp[3].queue 	queueLength:timeavg 	0
attr interpolationmode  sample-hold
attr title  "queue length, timeavg"
scalar UniversityNetwork.main.ppp[3].queue 	rcvdPk:count 	7499
attr interpolationmode  none
attr title  "received packets, count"
scalar UniversityNetwork.main.ppp[3].queue 	rcvdPk:sum(packetBytes) 	10708572
attr interpolationmode  none
attr title  "received packets, sum(packetBytes)"
scalar UniversityNetwork.main.ppp[3].ppp 	rcvdPkFromHL:count 	7499
attr interpolationmode  none
attr source  packetReceivedFromUpper
attr title  "packets received from higher layer, count"
scalar UniversityNetwork.main.ppp[3].ppp 	rcvdPkFromHL:sum(packetBytes) 	10708572
attr interpolationmode  none
attr source  packetReceivedFromUpper
attr title  "packets received from higher layer, sum(packetBytes)"
scalar UniversityNetwork.main.ppp[3].ppp 	passedUpPk:count 	7499
attr interpolationmode  none
attr source  packetSentToUpper
attr title  "packets passed to higher layer, count"
scalar UniversityNetwork.main.ppp[3].ppp 	passedUpPk:sum(packetBytes) 	10708572
attr interpolationmode  none
attr source  packetSentToUpper
attr title  "packets passed to higher layer, sum(packetBytes)"
scalar UniversityNetwork.main.ppp[3].ppp 	txPk:count 	7499
attr interpolationmode  none
attr source  packetSentToLower
attr title  "packets transmitted, count"
scalar UniversityNetwork.main.ppp[3].ppp 	txPk:sum(packetBytes) 	10761065
attr interpolationmode  none
attr source  packetSentToLower
attr title  "packets transmitted, sum(packetBytes)"
scalar UniversityNetwork.main.ppp[3].ppp 	droppedPkBitError:count 	0
attr interpolationmode  none
attr source  dropPkBitError
attr title  "packets dropped/bit error, count"
scalar UniversityNetwork.main.ppp[3].ppp 	droppedPkBitError:sum(packetBytes) 	0
attr interpolationmode  none
attr source  dropPkBitError
attr title  "packets dropped/bit error, sum(packetBytes)"
scalar UniversityNetwork.main.ppp[3].ppp 	droppedPkIfaceDown:count 	0
attr interpolationmode  none
attr source  dropPkIfaceDown
attr title  "packets dropped/interface down, count"
scalar UniversityNetwork.main.ppp[3].ppp 	droppedPkIfaceDown:sum(packetBytes) 	0
attr interpolationmode  none
attr source  dropPkIfaceDown
attr title  "packets dropped/interface down, sum(packetBytes)"
scalar UniversityNetwork.main.ppp[3].ppp 	rxPkOk:count 	7499
attr interpolationmode  none
attr source  rxPkOk
attr title  "packets received OK, count"
scalar UniversityNetwork.main.ppp[3].ppp 	rxPkOk:sum(packetBytes) 	10761065
attr interpolationmode  none
attr source  rxPkOk
attr title  "packets received OK, sum(packetBytes)"
scalar UniversityNetwork.main.ppp[3].ppp 	txState:timeavg 	0.0028696173333332
attr interpolationmode  sample-hold
attr title  "tx state, timeavg"
scalar UniversityNetwork.remote.networkLayer.arp 	initiatedARPResolution:count 	18
attr title  "ARP initiated resolutions, count"
scalar UniversityNetwork.remote.networkLayer.arp 	sentReply:count 	90
attr title  "ARP replies sent, count"
scalar UniversityNetwork.remote.networkLayer.arp 	sentReq:count 	18
attr title  "ARP request sent, count"
scalar UniversityNetwork.remote.networkLayer.arp 	failedARPResolution:count 	0
attr title  "ARP failed resolutions, count"
scalar UniversityNetwork.remote.networkLayer.arp 	completedARPResolution:count 	107
attr title  "ARP completed resolutions, count"
scalar UniversityNetwork.remote.lo0.lo 	rcvdPkFromHL:count 	0
attr interpolationmode  none
attr source  packetReceivedFromUpper
attr title  "packets received from higher layer, count"
scalar UniversityNetwork.remote.lo0.lo 	rcvdPkFromHL:sum(packetBytes) 	0
attr interpolationmode  none
attr source  packetReceivedFromUpper
attr title  "packets received from higher layer, sum(packetBytes)"
scalar UniversityNetwork.remote.lo0.lo 	passedUpPk:count 	0
attr interpolationmode  none
attr source  packetSentToUpper
attr title  "packets passed to higher layer, count"
scalar UniversityNetwork.remote.lo0.lo 	passedUpPk:sum(packetBytes) 	0
attr interpolationmode  none
attr source  packetSentToUpper
attr title  "packets passed to higher layer, sum(packetBytes)"
scalar UniversityNetwork.remote.lo0.lo 	droppedPkBitError:count 	0
attr interpolationmode  none
attr source  dropPkBitError
attr title  "packets dropped/bit error, count"
scalar UniversityNetwork.remote.lo0.lo 	droppedPkBitError:sum(packetBytes) 	0
attr interpolationmode  none
attr source  dropPkBitError
attr title  "packets dropped/bit error, sum(packetBytes)"
scalar UniversityNetwork.remote.eth[0].mac 	"simulated time" 	300
scalar UniversityNetwork.remote.eth[0].mac 	full-duplex 	1
scalar UniversityNetwork.remote.eth[0].mac 	"frames/sec sent" 	891.80333333333
scalar UniversityNetwork.remote.eth[0].mac 	"frames/sec rcvd" 	877.86666666667
scalar UniversityNetwork.remote.eth[0].mac 	"bits/sec sent" 	6313420.3733333
scalar UniversityNetwork.remote.eth[0].mac 	"bits/sec rcvd" 	5081822.0266667
scalar UniversityNetwork.remote.eth[0].mac 	"rx channel idle (%)" 	94.861994506667
scalar UniversityNetwork.remote.eth[0].mac 	"rx channel utilization (%)" 	5.1380054933327
scalar UniversityNetwork.remote.eth[0].mac 	rxPkFromHL:count 	267541
attr interpolationmode  none
attr source  rxPkFromHL
attr title  "packet bytes from higher layer, count"
scalar UniversityNetwork.remote.eth[0].mac 	rxPkFromHL:sum(packetBytes) 	236753264
attr interpolationmode  none
attr source  rxPkFromHL
attr title  "packet bytes from higher layer, sum(packetBytes)"
scalar UniversityNetwork.remote.eth[0].mac 	rxPausePkUnits:count 	0
attr interpolationmode  none
attr title  "pause units received, count"
scalar UniversityNetwork.remote.eth[0].mac 	rxPausePkUnits:sum 	0
attr interpolationmode  none
attr title  "pause units received, sum"
scalar UniversityNetwork.remote.eth[0].mac 	txPausePkUnits:count 	0
attr interpolationmode  none
attr title  "pause units sent, count"
scalar UniversityNetwork.remote.eth[0].mac 	txPausePkUnits:sum 	0
attr interpolationmode  none
attr title  "pause units sent, sum"
scalar UniversityNetwork.remote.eth[0].mac 	txPk:count 	267541
attr interpolationmode  none
attr source  txPk
attr title  "packets transmitted, count"
scalar UniversityNetwork.remote.eth[0].mac 	txPk:sum(packetBytes) 	236753264
attr interpolationmode  none
attr source  txPk
attr title  "packets transmitted, sum(packetBytes)"
scalar UniversityNetwork.remote.eth[0].mac 	droppedPkNotForUs:count 	0
attr interpolationmode  none
attr source  dropPkNotForUs
attr title  "packets dropped/not for us, count"
scalar UniversityNetwork.remote.eth[0].mac 	droppedPkNotForUs:sum(packetBytes) 	0
attr interpolationmode  none
attr source  dropPkNotForUs
attr title  "packets dropped/not for us, sum(packetBytes)"
scalar UniversityNetwork.remote.eth[0].mac 	passedUpPk:count 	263360
attr interpolationmode  none
attr source  packetSentToUpper
attr title  "packets passed to higher layer, count"
scalar UniversityNetwork.remote.eth[0].mac 	passedUpPk:sum(packetBytes) 	190568326
attr interpolationmode  none
attr source  packetSentToUpper
attr title  "packets passed to higher layer, sum(packetBytes)"
scalar UniversityNetwork.remote.eth[0].mac 	droppedPkBitError:count 	0
attr interpolationmode  none
attr source  dropPkBitError
attr title  "packets dropped/bit error, count"
scalar UniversityNetwork.remote.eth[0].mac 	droppedPkBitError:sum(packetBytes) 	0
attr interpolationmode  none
attr source  dropPkBitError
attr title  "packets dropped/bit error, sum(packetBytes)"
scalar UniversityNetwork.remote.eth[0].mac 	droppedPkIfaceDown:count 	0
attr interpolationmode  none
attr source  dropPkIfaceDown
attr title  "packets dropped/interface down, count"
scalar UniversityNetwork.remote.eth[0].mac 	droppedPkIfaceDown:sum(packetBytes) 	0
attr interpolationmode  none
attr source  dropPkIfaceDown
attr title  "packets dropped/interface down, sum(packetBytes)"
scalar UniversityNetwork.remote.eth[0].mac 	rxPkOk:count 	263360
attr interpolationmode  none
attr source  rxPkOk
attr title  "packets received OK, count"
scalar UniversityNetwork.remote.eth[0].mac 	rxPkOk:sum(packetBytes) 	190568326
attr interpolationmode  none
attr source  rxPkOk
attr title  "packets received OK, sum(packetBytes)"
scalar UniversityNetwork.remote.eth[0].encap 	pauseSent:count 	0
attr title  "pause sent, count"
scalar UniversityNetwork.remote.eth[0].encap 	pauseSent:sum 	0
attr title  "pause sent, sum"
scalar UniversityNetwork.remote.eth[0].encap 	decapPk:count 	263360
attr interpolationmode  none
attr source  decapPk
attr title  "packets decapsulated, count"
scalar UniversityNetwork.remote.eth[0].encap 	decapPk:sum(packetBytes) 	187166860
attr interpolationmode  none
attr source  decapPk
attr title  "packets decapsulated, sum(packetBytes)"
scalar UniversityNetwork.remote.eth[0].encap 	encapPk:count 	267541
attr interpolationmode  none
attr source  encapPk
attr title  "packets encapsulated, count"
scalar UniversityNetwork.remote.eth[0].encap 	encapPk:sum(packetBytes) 	231246801
attr interpolationmode  none
attr source  encapPk
attr title  "packets encapsulated, sum(packetBytes)"
scalar UniversityNetwork.remote.ppp[0].inputHook[0] 	duration 	300
scalar UniversityNetwork.remote.ppp[0].inputHook[0] 	"total packets" 	267433
scalar UniversityNetwork.remote.ppp[0].inputHook[0] 	"total bits" 	1849950216
scalar UniversityNetwork.remote.ppp[0].inputHook[0] 	"avg throughput (bit/s)" 	6166500.72
scalar UniversityNetwork.remote.ppp[0].inputHook[0] 	"avg packets/s" 	891.44333333333
statistic UniversityNetwork.remote.ppp[0].queue 	queueingTime:histogram
field count 263252
field mean 0.00020979945229588
field stddev 0.00055917825753553
field sum 55.230125415794
field sqrsum 0.093900657956938
field min 0
field max 0.013882412798
attr interpolationmode  none
attr title  "queueing time, histogram"
bin	-INF	0
bin	-0.001023783323	0
bin	-0.00088727887993333	0
bin	-0.00075077443686667	0
bin	-0.0006142699938	0
bin	-0.00047776555073333	0
bin	-0.00034126110766667	0
bin	-0.0002047566646	0
bin	-6.8252221533333e-05	181432
bin	6.8252221533333e-05	19149
bin	0.0002047566646	4721
bin	0.00034126110766667	22585
bin	0.00047776555073333	5491
bin	0.0006142699938	6490
bin	0.00075077443686667	7204
bin	0.00088727887993333	2142
bin	0.001023783323	2887
bin	0.0011602877660667	2375
bin	0.0012967922091333	909
bin	0.0014332966522	1542
bin	0.0015698010952667	872
bin	0.0017063055383333	517
bin	0.0018428099814	899
bin	0.0019793144244667	469
bin	0.0021158188675333	339
bin	0.0022523233106	479
bin	0.0023888277536667	261
bin	0.0025253321967333	263
bin	0.0026618366398	256
bin	0.0027983410828667	144
bin	0.0029348455259333	173
bin	0.003071349969	1653
scalar UniversityNetwork.remote.ppp[0].queue 	dropPk:count 	0
attr interpolationmode  none
attr source  dropPkByQueue
attr title  "dropped packets, count"
scalar UniversityNetwork.remote.ppp[0].queue 	dropPk:sum(packetBytes) 	0
attr interpolationmode  none
attr source  dropPkByQueue
attr title  "dropped packets, sum(packetBytes)"
scalar UniversityNetwork.remote.ppp[0].queue 	queueLength:max 	14
attr interpolationmode  sample-hold
attr title  "queue length, max"
scalar UniversityNetwork.remote.ppp[0].queue 	queueLength:timeavg 	0.18410084136093
attr interpolationmode  sample-hold
attr title  "queue length, timeavg"
scalar UniversityNetwork.remote.ppp[0].queue 	rcvdPk:count 	263253
attr interpolationmode  none
attr title  "received packets, count"
scalar UniversityNetwork.remote.ppp[0].queue 	rcvdPk:sum(packetBytes) 	187163864
attr interpolationmode  none
attr title  "received packets, sum(packetBytes)"
scalar UniversityNetwork.remote.ppp[0].ppp 	rcvdPkFromHL:count 	263252
attr interpolationmode  none
attr source  packetReceivedFromUpper
attr title  "packets received from higher layer, count"
scalar UniversityNetwork.remote.ppp[0].ppp 	rcvdPkFromHL:sum(packetBytes) 	187163824
attr interpolationmode  none
attr source  packetReceivedFromUpper
attr title  "packets received from higher layer, sum(packetBytes)"
scalar UniversityNetwork.remote.ppp[0].ppp 	passedUpPk:count 	267433
attr interpolationmode  none
attr source  packetSentToUpper
attr title  "packets passed to higher layer, count"
scalar UniversityNetwork.remote.ppp[0].ppp 	passedUpPk:sum(packetBytes) 	231243777
attr interpolationmode  none
attr source  packetSentToUpper
attr title  "packets passed to higher layer, sum(packetBytes)"
scalar UniversityNetwork.remote.ppp[0].ppp 	txPk:count 	263252
attr interpolationmode  none
attr source  packetSentToLower
attr title  "packets transmitted, count"
scalar UniversityNetwork.remote.ppp[0].ppp 	txPk:sum(packetBytes) 	189006588
attr interpolationmode  none
attr source  packetSentToLower
attr title  "packets transmitted, sum(packetBytes)"
scalar UniversityNetwork.remote.ppp[0].ppp 	droppedPkBitError:count 	0
attr interpolationmode  none
attr source  dropPkBitError
attr title  "packets dropped/bit error, count"
scalar UniversityNetwork.remote.ppp[0].ppp 	droppedPkBitError:sum(packetBytes) 	0
attr interpolationmode  none
attr source  dropPkBitError
attr title  "packets dropped/bit error, sum(packetBytes)"
scalar UniversityNetwork.remote.ppp[0].ppp 	droppedPkIfaceDown:count 	0
attr interpolationmode  none
attr source  dropPkIfaceDown
attr title  "packets dropped/interface down, count"
scalar UniversityNetwork.remote.ppp[0].ppp 	droppedPkIfaceDown:sum(packetBytes) 	0
attr interpolationmode  none
attr source  dropPkIfaceDown
attr title  "packets dropped/interface down, sum(packetBytes)"
scalar UniversityNetwork.remote.ppp[0].ppp 	rxPkOk:count 	267433
attr interpolationmode  none
attr source  rxPkOk
attr title  "packets received OK, count"
scalar UniversityNetwork.remote.ppp[0].ppp 	rxPkOk:sum(packetBytes) 	233115808
attr interpolationmode  none
attr source  rxPkOk
attr title  "packets received OK, sum(packetBytes)"
scalar UniversityNetwork.remote.ppp[0].ppp 	txState:timeavg 	0.42001253719685
attr interpolationmode  sample-hold
attr title  "tx state, timeavg"
scalar UniversityNetwork.remote.ppp[1].inputHook[0] 	duration 	300
scalar UniversityNetwork.remote.ppp[1].inputHook[0] 	"total packets" 	0
scalar UniversityNetwork.remote.ppp[1].inputHook[0] 	"total bits" 	0
scalar UniversityNetwork.remote.ppp[1].inputHook[0] 	"avg throughput (bit/s)" 	0
scalar UniversityNetwork.remote.ppp[1].inputHook[0] 	"avg packets/s" 	0
statistic UniversityNetwork.remote.ppp[1].queue 	queueingTime:histogram
field count 0
field mean -nan
field stddev -nan
field sum 0
field sqrsum 0
field min -nan
field max -nan
attr interpolationmode  none
attr title  "queueing time, histogram"
bin	-INF	0
bin	-0.5	0
bin	-0.46666666666667	0
bin	-0.43333333333333	0
bin	-0.4	0
bin	-0.36666666666667	0
bin	-0.33333333333333	0
bin	-0.3	0
bin	-0.26666666666667	0
bin	-0.23333333333333	0
bin	-0.2	0
bin	-0.16666666666667	0
bin	-0.13333333333333	0
bin	-0.1	0
bin	-0.066666666666667	0
bin	-0.033333333333333	0
bin	0	0
bin	0.033333333333333	0
bin	0.066666666666667	0
bin	0.1	0
bin	0.13333333333333	0
bin	0.16666666666667	0
bin	0.2	0
bin	0.23333333333333	0
bin	0.26666666666667	0
bin	0.3	0
bin	0.33333333333333	0
bin	0.36666666666667	0
bin	0.4	0
bin	0.43333333333333	0
bin	0.46666666666667	0
bin	0.5	0
scalar UniversityNetwork.remote.ppp[1].queue 	dropPk:count 	0
attr interpolationmode  none
attr source  dropPkByQueue
attr title  "dropped packets, count"
scalar UniversityNetwork.remote.ppp[1].queue 	dropPk:sum(packetBytes) 	0
attr interpolationmode  none
attr source  dropPkByQueue
attr title  "dropped packets, sum(packetBytes)"
scalar UniversityNetwork.remote.ppp[1].queue 	queueLength:max 	0
attr interpolationmode  sample-hold
attr title  "queue length, max"
scalar UniversityNetwork.remote.ppp[1].queue 	queueLength:timeavg 	0
attr interpolationmode  sample-hold
attr title  "queue length, timeavg"
scalar UniversityNetwork.remote.ppp[1].queue 	rcvdPk:count 	0
attr interpolationmode  none
attr title  "received packets, count"
scalar UniversityNetwork.remote.ppp[1].queue 	rcvdPk:sum(packetBytes) 	0
attr interpolationmode  none
attr title  "received packets, sum(packetBytes)"
scalar UniversityNetwork.remote.ppp[1].ppp 	rcvdPkFromHL:count 	0
attr interpolationmode  none
attr source  packetReceivedFromUpper
attr title  "packets received from higher layer, count"
scalar UniversityNetwork.remote.ppp[1].ppp 	rcvdPkFromHL:sum(packetBytes) 	0
attr interpolationmode  none
attr source  packetReceivedFromUpper
attr title  "packets received from higher layer, sum(packetBytes)"
scalar UniversityNetwork.remote.ppp[1].ppp 	passedUpPk:count 	0
attr interpolationmode  none
attr source  packetSentToUpper
attr title  "packets passed to higher layer, count"
scalar UniversityNetwork.remote.ppp[1].ppp 	passedUpPk:sum(packetBytes) 	0
attr interpolationmode  none
attr source  packetSentToUpper
attr title  "packets passed to higher layer, sum(packetBytes)"
scalar UniversityNetwork.remote.ppp[1].ppp 	txPk:count 	0
attr interpolationmode  none
attr source  packetSentToLower
attr title  "packets transmitted, count"
scalar UniversityNetwork.remote.ppp[1].ppp 	txPk:sum(packetBytes) 	0
attr interpolationmode  none
attr source  packetSentToLower
attr title  "packets transmitted, sum(packetBytes)"
scalar UniversityNetwork.remote.ppp[1].ppp 	droppedPkBitError:count 	0
attr interpolationmode  none
attr source  dropPkBitError
attr title  "packets dropped/bit error, count"
scalar UniversityNetwork.remote.ppp[1].ppp 	droppedPkBitError:sum(packetBytes) 	0
attr interpolationmode  none
attr source  dropPkBitError
attr title  "packets dropped/bit error, sum(packetBytes)"
scalar UniversityNetwork.remote.ppp[1].ppp 	droppedPkIfaceDown:count 	0
attr interpolationmode  none
attr source  dropPkIfaceDown
attr title  "packets dropped/interface down, count"
scalar UniversityNetwork.remote.ppp[1].ppp 	droppedPkIfaceDown:sum(packetBytes) 	0
attr interpolationmode  none
attr source  dropPkIfaceDown
attr title  "packets dropped/interface down, sum(packetBytes)"
scalar UniversityNetwork.remote.ppp[1].ppp 	rxPkOk:count 	0
attr interpolationmode  none
attr source  rxPkOk
attr title  "packets received OK, count"
scalar UniversityNetwork.remote.ppp[1].ppp 	rxPkOk:sum(packetBytes) 	0
attr interpolationmode  none
attr source  rxPkOk
attr title  "packets received OK, sum(packetBytes)"
scalar UniversityNetwork.remote.ppp[1].ppp 	txState:timeavg 	0
attr interpolationmode  sample-hold
attr title  "tx state, timeavg"
scalar UniversityNetwork.Internet.networkLayer.arp 	initiatedARPResolution:count 	0
attr title  "ARP initiated resolutions, count"
scalar UniversityNetwork.Internet.networkLayer.arp 	sentReply:count 	0
attr title  "ARP replies sent, count"
scalar UniversityNetwork.Internet.networkLayer.arp 	sentReq:count 	0
attr title  "ARP request sent, count"
scalar UniversityNetwork.Internet.networkLayer.arp 	failedARPResolution:count 	0
attr title  "ARP failed resolutions, count"
scalar UniversityNetwork.Internet.networkLayer.arp 	completedARPResolution:count 	0
attr title  "ARP completed resolutions, count"
scalar UniversityNetwork.Internet.lo0.lo 	rcvdPkFromHL:count 	0
attr interpolationmode  none
attr source  packetReceivedFromUpper
attr title  "packets received from higher layer, count"
scalar UniversityNetwork.Internet.lo0.lo 	rcvdPkFromHL:sum(packetBytes) 	0
attr interpolationmode  none
attr source  packetReceivedFromUpper
attr title  "packets received from higher layer, sum(packetBytes)"
scalar UniversityNetwork.Internet.lo0.lo 	passedUpPk:count 	0
attr interpolationmode  none
attr source  packetSentToUpper
attr title  "packets passed to higher layer, count"
scalar UniversityNetwork.Internet.lo0.lo 	passedUpPk:sum(packetBytes) 	0
attr interpolationmode  none
attr source  packetSentToUpper
attr title  "packets passed to higher layer, sum(packetBytes)"
scalar UniversityNetwork.Internet.lo0.lo 	droppedPkBitError:count 	0
attr interpolationmode  none
attr source  dropPkBitError
attr title  "packets dropped/bit error, count"
scalar UniversityNetwork.Internet.lo0.lo 	droppedPkBitError:sum(packetBytes) 	0
attr interpolationmode  none
attr source  dropPkBitError
attr title  "packets dropped/bit error, sum(packetBytes)"
scalar UniversityNetwork.Internet.ppp[0].inputHook[0] 	duration 	300
scalar UniversityNetwork.Internet.ppp[0].inputHook[0] 	"total packets" 	255733
scalar UniversityNetwork.Internet.ppp[0].inputHook[0] 	"total bits" 	1411483776
scalar UniversityNetwork.Internet.ppp[0].inputHook[0] 	"avg throughput (bit/s)" 	4704945.92
scalar UniversityNetwork.Internet.ppp[0].inputHook[0] 	"avg packets/s" 	852.44333333333
statistic UniversityNetwork.Internet.ppp[0].queue 	queueingTime:histogram
field count 261401
field mean 3.0799694186714e-05
field stddev 0.00022385723815187
field sum 8.0510708601012
field sqrsum 0.013347263807644
field min 0
field max 0.0048224
attr interpolationmode  none
attr title  "queueing time, histogram"
bin	-INF	0
bin	-6.028e-05	0
bin	-5.2242666666667e-05	0
bin	-4.4205333333333e-05	0
bin	-3.6168e-05	0
bin	-2.8130666666667e-05	0
bin	-2.0093333333333e-05	0
bin	-1.2056e-05	0
bin	-4.0186666666667e-06	227833
bin	4.0186666666667e-06	27
bin	1.2056e-05	31
bin	2.0093333333333e-05	40
bin	2.8130666666667e-05	26
bin	3.6168e-05	44
bin	4.4205333333333e-05	57
bin	5.2242666666667e-05	41
bin	6.028e-05	46
bin	6.8317333333333e-05	37
bin	7.6354666666667e-05	35
bin	8.4392e-05	79
bin	9.2429333333333e-05	17
bin	0.00010046666666667	39
bin	0.000108504	36
bin	0.00011654133333333	30008
bin	0.00012457866666667	15
bin	0.000132616	15
bin	0.00014065333333333	18
bin	0.00014869066666667	19
bin	0.000156728	24
bin	0.00016476533333333	23
bin	0.00017280266666667	19
bin	0.00018084	2872
scalar UniversityNetwork.Internet.ppp[0].queue 	dropPk:count 	12896
attr interpolationmode  none
attr source  dropPkByQueue
attr title  "dropped packets, count"
scalar UniversityNetwork.Internet.ppp[0].queue 	dropPk:sum(packetBytes) 	19321267
attr interpolationmode  none
attr source  dropPkByQueue
attr title  "dropped packets, sum(packetBytes)"
scalar UniversityNetwork.Internet.ppp[0].queue 	queueLength:max 	40
attr interpolationmode  sample-hold
attr title  "queue length, max"
scalar UniversityNetwork.Internet.ppp[0].queue 	queueLength:timeavg 	0.026836902867004
attr interpolationmode  sample-hold
attr title  "queue length, timeavg"
scalar UniversityNetwork.Internet.ppp[0].queue 	rcvdPk:count 	274297
attr interpolationmode  none
attr title  "received packets, count"
scalar UniversityNetwork.Internet.ppp[0].queue 	rcvdPk:sum(packetBytes) 	241994686
attr interpolationmode  none
attr title  "received packets, sum(packetBytes)"
scalar UniversityNetwork.Internet.ppp[0].ppp 	rcvdPkFromHL:count 	261401
attr interpolationmode  none
attr source  packetReceivedFromUpper
attr title  "packets received from higher layer, count"
scalar UniversityNetwork.Internet.ppp[0].ppp 	rcvdPkFromHL:sum(packetBytes) 	222673419
attr interpolationmode  none
attr source  packetReceivedFromUpper
attr title  "packets received from higher layer, sum(packetBytes)"
scalar UniversityNetwork.Internet.ppp[0].ppp 	passedUpPk:count 	255733
attr interpolationmode  none
attr source  packetSentToUpper
attr title  "packets passed to higher layer, count"
scalar UniversityNetwork.Internet.ppp[0].ppp 	passedUpPk:sum(packetBytes) 	176435472
attr interpolationmode  none
attr source  packetSentToUpper
attr title  "packets passed to higher layer, sum(packetBytes)"
scalar UniversityNetwork.Internet.ppp[0].ppp 	txPk:count 	261401
attr interpolationmode  none
attr source  packetSentToLower
attr title  "packets transmitted, count"
scalar UniversityNetwork.Internet.ppp[0].ppp 	txPk:sum(packetBytes) 	224503226
attr interpolationmode  none
attr source  packetSentToLower
attr title  "packets transmitted, sum(packetBytes)"
scalar UniversityNetwork.Internet.ppp[0].ppp 	droppedPkBitError:count 	0
attr interpolationmode  none
attr source  dropPkBitError
attr title  "packets dropped/bit error, count"
scalar UniversityNetwork.Internet.ppp[0].ppp 	droppedPkBitError:sum(packetBytes) 	0
attr interpolationmode  none
attr source  dropPkBitError
attr title  "packets dropped/bit error, sum(packetBytes)"
scalar UniversityNetwork.Internet.ppp[0].ppp 	droppedPkIfaceDown:count 	0
attr interpolationmode  none
attr source  dropPkIfaceDown
attr title  "packets dropped/interface down, count"
scalar UniversityNetwork.Internet.ppp[0].ppp 	droppedPkIfaceDown:sum(packetBytes) 	0
attr interpolationmode  none
attr source  dropPkIfaceDown
attr title  "packets dropped/interface down, sum(packetBytes)"
scalar UniversityNetwork.Internet.ppp[0].ppp 	rxPkOk:count 	255733
attr interpolationmode  none
attr source  rxPkOk
attr title  "packets received OK, count"
scalar UniversityNetwork.Internet.ppp[0].ppp 	rxPkOk:sum(packetBytes) 	178225603
attr interpolationmode  none
attr source  rxPkOk
attr title  "packets received OK, sum(packetBytes)"
scalar UniversityNetwork.Internet.ppp[0].ppp 	txState:timeavg 	0.059867526932978
attr interpolationmode  sample-hold
attr title  "tx state, timeavg"
scalar UniversityNetwork.Internet.tcpApp[0] 	sentPk:count 	362
attr interpolationmode  none
attr source  sentPk
attr title  "packets sent, count"
scalar UniversityNetwork.Internet.tcpApp[0] 	sentPk:sum(packetBytes) 	207908448
attr interpolationmode  none
attr source  sentPk
attr title  "packets sent, sum(packetBytes)"
scalar UniversityNetwork.Internet.tcpApp[0] 	rcvdPk:count 	362
attr interpolationmode  none
attr source  rcvdPk
attr title  "packets received, count"
scalar UniversityNetwork.Internet.tcpApp[0] 	rcvdPk:sum(packetBytes) 	271500
attr interpolationmode  none
attr source  rcvdPk
attr title  "packets received, sum(packetBytes)"
statistic UniversityNetwork.Internet.tcpApp[0] 	endToEndDelay:histogram
field count 362
field mean 0.026243945105953
field stddev 0.047348002880454
field sum 9.500308128355
field sqrsum 1.0586274140233
field min 0.022182204628
field max 0.922857877033
attr interpolationmode  none
attr source  messageAge(rcvdPk)
attr title  "end-to-end delay, histogram"
attr unit  s
bin	-INF	0
bin	0.0118197490935	0
bin	0.013201409831433	0
bin	0.014583070569367	0
bin	0.0159647313073	0
bin	0.017346392045233	0
bin	0.018728052783167	0
bin	0.0201097135211	0
bin	0.021491374259033	171
bin	0.022873034996967	107
bin	0.0242546957349	43
bin	0.025636356472833	20
bin	0.027018017210767	6
bin	0.0283996779487	5
bin	0.029781338686633	2
bin	0.031162999424567	0
bin	0.0325446601625	2
bin	0.033926320900433	2
bin	0.035307981638367	0
bin	0.0366896423763	0
bin	0.038071303114233	1
bin	0.039452963852167	0
bin	0.0408346245901	0
bin	0.042216285328033	1
bin	0.043597946065967	0
bin	0.0449796068039	0
bin	0.046361267541833	0
bin	0.047742928279767	0
bin	0.0491245890177	0
bin	0.050506249755633	0
bin	0.051887910493567	0
bin	0.0532695712315	2
scalar UniversityNetwork.Professor.networkLayer.arp 	initiatedARPResolution:count 	0
attr title  "ARP initiated resolutions, count"
scalar UniversityNetwork.Professor.networkLayer.arp 	sentReply:count 	0
attr title  "ARP replies sent, count"
scalar UniversityNetwork.Professor.networkLayer.arp 	sentReq:count 	0
attr title  "ARP request sent, count"
scalar UniversityNetwork.Professor.networkLayer.arp 	failedARPResolution:count 	0
attr title  "ARP failed resolutions, count"
scalar UniversityNetwork.Professor.networkLayer.arp 	completedARPResolution:count 	0
attr title  "ARP completed resolutions, count"
scalar UniversityNetwork.Professor.lo0.lo 	rcvdPkFromHL:count 	0
attr interpolationmode  none
attr source  packetReceivedFromUpper
attr title  "packets received from higher layer, count"
scalar UniversityNetwork.Professor.lo0.lo 	rcvdPkFromHL:sum(packetBytes) 	0
attr interpolationmode  none
attr source  packetReceivedFromUpper
attr title  "packets received from higher layer, sum(packetBytes)"
scalar UniversityNetwork.Professor.lo0.lo 	passedUpPk:count 	0
attr interpolationmode  none
attr source  packetSentToUpper
attr title  "packets passed to higher layer, count"
scalar UniversityNetwork.Professor.lo0.lo 	passedUpPk:sum(packetBytes) 	0
attr interpolationmode  none
attr source  packetSentToUpper
attr title  "packets passed to higher layer, sum(packetBytes)"
scalar UniversityNetwork.Professor.lo0.lo 	droppedPkBitError:count 	0
attr interpolationmode  none
attr source  dropPkBitError
attr title  "packets dropped/bit error, count"
scalar UniversityNetwork.Professor.lo0.lo 	droppedPkBitError:sum(packetBytes) 	0
attr interpolationmode  none
attr source  dropPkBitError
attr title  "packets dropped/bit error, sum(packetBytes)"
scalar UniversityNetwork.Professor.ppp[0].inputHook[0] 	duration 	300
scalar UniversityNetwork.Professor.ppp[0].inputHook[0] 	"total packets" 	7499
scalar UniversityNetwork.Professor.ppp[0].inputHook[0] 	"total bits" 	85668576
scalar UniversityNetwork.Professor.ppp[0].inputHook[0] 	"avg throughput (bit/s)" 	285561.92
scalar UniversityNetwork.Professor.ppp[0].inputHook[0] 	"avg packets/s" 	24.996666666667
statistic UniversityNetwork.Professor.ppp[0].queue 	queueingTime:histogram
field count 7499
field mean 0
field stddev 0
field sum 0
field sqrsum 0
field min 0
field max 0
attr interpolationmode  none
attr title  "queueing time, histogram"
bin	-INF	0
bin	-0.5	0
bin	-0.46666666666667	0
bin	-0.43333333333333	0
bin	-0.4	0
bin	-0.36666666666667	0
bin	-0.33333333333333	0
bin	-0.3	0
bin	-0.26666666666667	0
bin	-0.23333333333333	0
bin	-0.2	0
bin	-0.16666666666667	0
bin	-0.13333333333333	0
bin	-0.1	0
bin	-0.066666666666667	0
bin	-0.033333333333333	0
bin	0	7499
bin	0.033333333333333	0
bin	0.066666666666667	0
bin	0.1	0
bin	0.13333333333333	0
bin	0.16666666666667	0
bin	0.2	0
bin	0.23333333333333	0
bin	0.26666666666667	0
bin	0.3	0
bin	0.33333333333333	0
bin	0.36666666666667	0
bin	0.4	0
bin	0.43333333333333	0
bin	0.46666666666667	0
bin	0.5	0
scalar UniversityNetwork.Professor.ppp[0].queue 	dropPk:count 	0
attr interpolationmode  none
attr source  dropPkByQueue
attr title  "dropped packets, count"
scalar UniversityNetwork.Professor.ppp[0].queue 	dropPk:sum(packetBytes) 	0
attr interpolationmode  none
attr source  dropPkByQueue
attr title  "dropped packets, sum(packetBytes)"
scalar UniversityNetwork.Professor.ppp[0].queue 	queueLength:max 	0
attr interpolationmode  sample-hold
attr title  "queue length, max"
scalar UniversityNetwork.Professor.ppp[0].queue 	queueLength:timeavg 	0
attr interpolationmode  sample-hold
attr title  "queue length, timeavg"
scalar UniversityNetwork.Professor.ppp[0].queue 	rcvdPk:count 	7499
attr interpolationmode  none
attr title  "received packets, count"
scalar UniversityNetwork.Professor.ppp[0].queue 	rcvdPk:sum(packetBytes) 	10708572
attr interpolationmode  none
attr title  "received packets, sum(packetBytes)"
scalar UniversityNetwork.Professor.ppp[0].ppp 	rcvdPkFromHL:count 	7499
attr interpolationmode  none
attr source  packetReceivedFromUpper
attr title  "packets received from higher layer, count"
scalar UniversityNetwork.Professor.ppp[0].ppp 	rcvdPkFromHL:sum(packetBytes) 	10708572
attr interpolationmode  none
attr source  packetReceivedFromUpper
attr title  "packets received from higher layer, sum(packetBytes)"
scalar UniversityNetwork.Professor.ppp[0].ppp 	passedUpPk:count 	7499
attr interpolationmode  none
attr source  packetSentToUpper
attr title  "packets passed to higher layer, count"
scalar UniversityNetwork.Professor.ppp[0].ppp 	passedUpPk:sum(packetBytes) 	10708572
attr interpolationmode  none
attr source  packetSentToUpper
attr title  "packets passed to higher layer, sum(packetBytes)"
scalar UniversityNetwork.Professor.ppp[0].ppp 	txPk:count 	7499
attr interpolationmode  none
attr source  packetSentToLower
attr title  "packets transmitted, count"
scalar UniversityNetwork.Professor.ppp[0].ppp 	txPk:sum(packetBytes) 	10761065
attr interpolationmode  none
attr source  packetSentToLower
attr title  "packets transmitted, sum(packetBytes)"
scalar UniversityNetwork.Professor.ppp[0].ppp 	droppedPkBitError:count 	0
attr interpolationmode  none
attr source  dropPkBitError
attr title  "packets dropped/bit error, count"
scalar UniversityNetwork.Professor.ppp[0].ppp 	droppedPkBitError:sum(packetBytes) 	0
attr interpolationmode  none
attr source  dropPkBitError
attr title  "packets dropped/bit error, sum(packetBytes)"
scalar UniversityNetwork.Professor.ppp[0].ppp 	droppedPkIfaceDown:count 	0
attr interpolationmode  none
attr source  dropPkIfaceDown
attr title  "packets dropped/interface down, count"
scalar UniversityNetwork.Professor.ppp[0].ppp 	droppedPkIfaceDown:sum(packetBytes) 	0
attr interpolationmode  none
attr source  dropPkIfaceDown
attr title  "packets dropped/interface down, sum(packetBytes)"
scalar UniversityNetwork.Professor.ppp[0].ppp 	rxPkOk:count 	7499
attr interpolationmode  none
attr source  rxPkOk
attr title  "packets received OK, count"
scalar UniversityNetwork.Professor.ppp[0].ppp 	rxPkOk:sum(packetBytes) 	10761065
attr interpolationmode  none
attr source  rxPkOk
attr title  "packets received OK, sum(packetBytes)"
scalar UniversityNetwork.Professor.ppp[0].ppp 	txState:timeavg 	0.0028696173333332
attr interpolationmode  sample-hold
attr title  "tx state, timeavg"
scalar UniversityNetwork.Professor.udpApp[0] 	#droppedBecauseLate 	26
scalar UniversityNetwork.Professor.udpApp[0] 	avgDuration 	0.02029487705286
scalar UniversityNetwork.Professor.udpApp[0] 	"error rate" 	0.0034671289505267
scalar UniversityNetwork.Professor.udpApp[0] 	"packets sent" 	7500
scalar UniversityNetwork.Professor.udpApp[0] 	"packets received" 	7499
scalar UniversityNetwork.Professor.udpApp[0] 	sentPk:count 	7500
attr interpolationmode  none
attr source  sentPk
attr title  "packets sent, count"
scalar UniversityNetwork.Professor.udpApp[0] 	sentPk:sum(packetBytes) 	10500000
attr interpolationmode  none
attr source  sentPk
attr title  "packets sent, sum(packetBytes)"
scalar UniversityNetwork.Professor.udpApp[0] 	rcvdPk:count 	7499
attr interpolationmode  none
attr source  rcvdPk
attr title  "packets received, count"
scalar UniversityNetwork.Professor.udpApp[0] 	rcvdPk:sum(packetBytes) 	10498600
attr interpolationmode  none
attr source  rcvdPk
attr title  "packets received, sum(packetBytes)"
statistic UniversityNetwork.Professor.udpApp[0] 	rcvdPkLifetime:stats
field count 7499
field mean 0.020294877052819
field stddev 0.036729842484019
field sum 152.19128301909
field sqrsum 13.204115181482
field min 0.016460396666
field max 1.053986405907
attr interpolationmode  none
attr source  messageAge(rcvdPk)
attr title  "received packet lifetime, stats"
attr unit  s
scalar UniversityNetwork.Professor.udp 	droppedPkBadChecksum:count 	0
attr interpolationmode  none
attr title  "packets dropped (checksum error), count"
scalar UniversityNetwork.Professor.udp 	droppedPkWrongPort:count 	0
attr interpolationmode  none
attr title  "packets dropped (wrong port), count"
scalar UniversityNetwork.Professor.udp 	passedUpPk:count 	7499
attr interpolationmode  none
attr title  "packets passed up, count"
scalar UniversityNetwork.Professor.udp 	sentPk:count 	7499
attr interpolationmode  none
attr source  sentPk
attr title  "packets sent, count"
scalar UniversityNetwork.Professor.udp 	sentPk:sum(packetBytes) 	10558592
attr interpolationmode  none
attr source  sentPk
attr title  "packets sent, sum(packetBytes)"
scalar UniversityNetwork.Professor.udp 	rcvdPk:count 	7499
attr interpolationmode  none
attr source  rcvdPk
attr title  "packets received, count"
scalar UniversityNetwork.Professor.udp 	rcvdPk:sum(packetBytes) 	10558592
attr interpolationmode  none
attr source  rcvdPk
attr title  "packets received, sum(packetBytes)"
scalar UniversityNetwork.accessPoint.relayUnit 	"number of received BPDUs from STP module" 	0
scalar UniversityNetwork.accessPoint.relayUnit 	"number of received frames from network (including BPDUs)" 	530901
scalar UniversityNetwork.accessPoint.relayUnit 	"number of dropped frames (including BPDUs)" 	0
scalar UniversityNetwork.accessPoint.relayUnit 	"number of delivered BPDUs to the STP module" 	0
scalar UniversityNetwork.accessPoint.relayUnit 	"number of dispatched BPDU frames to the network" 	0
scalar UniversityNetwork.accessPoint.relayUnit 	"number of dispatched non-BDPU frames to the network" 	530901
scalar UniversityNetwork.accessPoint.wlan[0].mgmt 	dropPkByQueue:count 	12981
attr interpolationmode  none
attr source  dropPkByQueue
attr title  "packets dropped by queue, count"
scalar UniversityNetwork.accessPoint.wlan[0].mgmt 	dropPkByQueue:sum(packetBytes) 	7628554
attr interpolationmode  none
attr source  dropPkByQueue
attr title  "packets dropped by queue, sum(packetBytes)"
scalar UniversityNetwork.accessPoint.wlan[0].mgmt 	dataQueueLen:max 	50
attr interpolationmode  sample-hold
attr title  "data queue length, max"
scalar UniversityNetwork.accessPoint.wlan[0].mgmt 	dataQueueLen:timeavg 	28.418130386618
attr interpolationmode  sample-hold
attr title  "data queue length, timeavg"
scalar UniversityNetwork.accessPoint.wlan[0].mac 	"number of received packets" 	263762
scalar UniversityNetwork.accessPoint.wlan[0].mac 	"number of collisions" 	2518
scalar UniversityNetwork.accessPoint.wlan[0].mac 	"number of internal collisions" 	0
scalar UniversityNetwork.accessPoint.wlan[0].mac 	"number of retry for AC 0" 	30074
scalar UniversityNetwork.accessPoint.wlan[0].mac 	"sent and received bits" 	1880721256
scalar UniversityNetwork.accessPoint.wlan[0].mac 	"sent packet within AC 0" 	254936
scalar UniversityNetwork.accessPoint.wlan[0].mac 	"sent in TXOP " 	0
scalar UniversityNetwork.accessPoint.wlan[0].mac 	"sentWithoutRetry AC 0" 	226666
scalar UniversityNetwork.accessPoint.wlan[0].mac 	"numGivenUp AC 0" 	0
scalar UniversityNetwork.accessPoint.wlan[0].mac 	"numDropped AC 0" 	0
scalar UniversityNetwork.accessPoint.wlan[0].mac 	rcvdPkFromHL:count 	258042
attr interpolationmode  none
attr source  packetReceivedFromUpper
attr title  "packets received from higher layer, count"
scalar UniversityNetwork.accessPoint.wlan[0].mac 	rcvdPkFromHL:sum(packetBytes) 	235093241
attr interpolationmode  none
attr source  packetReceivedFromUpper
attr title  "packets received from higher layer, sum(packetBytes)"
scalar UniversityNetwork.accessPoint.wlan[0].mac 	passedUpPk:count 	263789
attr interpolationmode  none
attr source  packetSentToUpper
attr title  "packets passed to higher layer, count"
scalar UniversityNetwork.accessPoint.wlan[0].mac 	passedUpPk:sum(packetBytes) 	198244068
attr interpolationmode  none
attr source  packetSentToUpper
attr title  "packets passed to higher layer, sum(packetBytes)"
scalar UniversityNetwork.accessPoint.wlan[0].mac 	rcvdPkFromLL:count 	521244
attr interpolationmode  none
attr source  packetReceivedFromLower
attr title  "packets received from lower layer, count"
scalar UniversityNetwork.accessPoint.wlan[0].mac 	rcvdPkFromLL:sum(packetBytes) 	203456010
attr interpolationmode  none
attr source  packetReceivedFromLower
attr title  "packets received from lower layer, sum(packetBytes)"
scalar UniversityNetwork.accessPoint.wlan[0].mac 	sentDownPk:count 	551876
attr interpolationmode  none
attr source  packetSentToLower
attr title  "packets sent to lower layer, count"
scalar UniversityNetwork.accessPoint.wlan[0].mac 	sentDownPk:sum(packetBytes) 	265355521
attr interpolationmode  none
attr source  packetSentToLower
attr title  "packets sent to lower layer, sum(packetBytes)"
scalar UniversityNetwork.accessPoint.wlan[0].radio 	lossRate:min 	0
attr interpolationmode  backward-sample-hold
attr title  "packet loss rate, min"
scalar UniversityNetwork.accessPoint.wlan[0].radio 	lossRate:max 	0.26
attr interpolationmode  backward-sample-hold
attr title  "packet loss rate, max"
scalar UniversityNetwork.accessPoint.wlan[0].radio 	lossRate:timeavg 	0.0047876400345566
attr interpolationmode  backward-sample-hold
attr title  "packet loss rate, timeavg"
statistic UniversityNetwork.accessPoint.wlan[0].radio 	channelNo:histogram
field count 1
field mean 0
field stddev -nan
field sum 0
field sqrsum 0
field min 0
field max 0
attr interpolationmode  sample-hold
attr title  "channel no, histogram"
bin	-INF	0
bin	-0.5	0
bin	-0.46666666666667	0
bin	-0.43333333333333	0
bin	-0.4	0
bin	-0.36666666666667	0
bin	-0.33333333333333	0
bin	-0.3	0
bin	-0.26666666666667	0
bin	-0.23333333333333	0
bin	-0.2	0
bin	-0.16666666666667	0
bin	-0.13333333333333	0
bin	-0.1	0
bin	-0.066666666666667	0
bin	-0.033333333333333	0
bin	0	1
bin	0.033333333333333	0
bin	0.066666666666667	0
bin	0.1	0
bin	0.13333333333333	0
bin	0.16666666666667	0
bin	0.2	0
bin	0.23333333333333	0
bin	0.26666666666667	0
bin	0.3	0
bin	0.33333333333333	0
bin	0.36666666666667	0
bin	0.4	0
bin	0.43333333333333	0
bin	0.46666666666667	0
bin	0.5	0
scalar UniversityNetwork.accessPoint.wlan[0].radio 	radioState:count 	2177271
attr interpolationmode  sample-hold
attr title  "radio state (enum), count"
scalar UniversityNetwork.accessPoint.wlan[0].radio 	bitrate:min 	54000000
attr interpolationmode  sample-hold
attr title  "tx bitrate, min"
attr unit  bps
scalar UniversityNetwork.accessPoint.wlan[0].radio 	bitrate:max 	54000000
attr interpolationmode  sample-hold
attr title  "tx bitrate, max"
attr unit  bps
scalar UniversityNetwork.accessPoint.wlan[0].radio 	bitrate:timeavg 	54000000
attr interpolationmode  sample-hold
attr title  "tx bitrate, timeavg"
attr unit  bps
scalar UniversityNetwork.accessPoint.eth[0].mac 	"simulated time" 	300
scalar UniversityNetwork.accessPoint.eth[0].mac 	full-duplex 	1
scalar UniversityNetwork.accessPoint.eth[0].mac 	"frames/sec sent" 	877.86666666667
scalar UniversityNetwork.accessPoint.eth[0].mac 	"frames/sec rcvd" 	891.80333333333
scalar UniversityNetwork.accessPoint.eth[0].mac 	"bits/sec sent" 	5081822.0266667
scalar UniversityNetwork.accessPoint.eth[0].mac 	"bits/sec rcvd" 	6313420.3733333
scalar UniversityNetwork.accessPoint.eth[0].mac 	"rx channel idle (%)" 	93.629504213342
scalar UniversityNetwork.accessPoint.eth[0].mac 	"rx channel utilization (%)" 	6.3704957866577
scalar UniversityNetwork.accessPoint.eth[0].mac 	rxPkFromHL:count 	263360
attr interpolationmode  none
attr source  rxPkFromHL
attr title  "packet bytes from higher layer, count"
scalar UniversityNetwork.accessPoint.eth[0].mac 	rxPkFromHL:sum(packetBytes) 	190568326
attr interpolationmode  none
attr source  rxPkFromHL
attr title  "packet bytes from higher layer, sum(packetBytes)"
scalar UniversityNetwork.accessPoint.eth[0].mac 	rxPausePkUnits:count 	0
attr interpolationmode  none
attr title  "pause units received, count"
scalar UniversityNetwork.accessPoint.eth[0].mac 	rxPausePkUnits:sum 	0
attr interpolationmode  none
attr title  "pause units received, sum"
scalar UniversityNetwork.accessPoint.eth[0].mac 	txPausePkUnits:count 	0
attr interpolationmode  none
attr title  "pause units sent, count"
scalar UniversityNetwork.accessPoint.eth[0].mac 	txPausePkUnits:sum 	0
attr interpolationmode  none
attr title  "pause units sent, sum"
scalar UniversityNetwork.accessPoint.eth[0].mac 	txPk:count 	263360
attr interpolationmode  none
attr source  txPk
attr title  "packets transmitted, count"
scalar UniversityNetwork.accessPoint.eth[0].mac 	txPk:sum(packetBytes) 	190568326
attr interpolationmode  none
attr source  txPk
attr title  "packets transmitted, sum(packetBytes)"
scalar UniversityNetwork.accessPoint.eth[0].mac 	droppedPkNotForUs:count 	0
attr interpolationmode  none
attr source  dropPkNotForUs
attr title  "packets dropped/not for us, count"
scalar UniversityNetwork.accessPoint.eth[0].mac 	droppedPkNotForUs:sum(packetBytes) 	0
attr interpolationmode  none
attr source  dropPkNotForUs
attr title  "packets dropped/not for us, sum(packetBytes)"
scalar UniversityNetwork.accessPoint.eth[0].mac 	passedUpPk:count 	267541
attr interpolationmode  none
attr source  packetSentToUpper
attr title  "packets passed to higher layer, count"
scalar UniversityNetwork.accessPoint.eth[0].mac 	passedUpPk:sum(packetBytes) 	236753264
attr interpolationmode  none
attr source  packetSentToUpper
attr title  "packets passed to higher layer, sum(packetBytes)"
scalar UniversityNetwork.accessPoint.eth[0].mac 	droppedPkBitError:count 	0
attr interpolationmode  none
attr source  dropPkBitError
attr title  "packets dropped/bit error, count"
scalar UniversityNetwork.accessPoint.eth[0].mac 	droppedPkBitError:sum(packetBytes) 	0
attr interpolationmode  none
attr source  dropPkBitError
attr title  "packets dropped/bit error, sum(packetBytes)"
scalar UniversityNetwork.accessPoint.eth[0].mac 	droppedPkIfaceDown:count 	0
attr interpolationmode  none
attr source  dropPkIfaceDown
attr title  "packets dropped/interface down, count"
scalar UniversityNetwork.accessPoint.eth[0].mac 	droppedPkIfaceDown:sum(packetBytes) 	0
attr interpolationmode  none
attr source  dropPkIfaceDown
attr title  "packets dropped/interface down, sum(packetBytes)"
scalar UniversityNetwork.accessPoint.eth[0].mac 	rxPkOk:count 	267541
attr interpolationmode  none
attr source  rxPkOk
attr title  "packets received OK, count"
scalar UniversityNetwork.accessPoint.eth[0].mac 	rxPkOk:sum(packetBytes) 	236753264
attr interpolationmode  none
attr source  rxPkOk
attr title  "packets received OK, sum(packetBytes)"
scalar UniversityNetwork.FTPUploader.networkLayer.arp 	initiatedARPResolution:count 	3
attr title  "ARP initiated resolutions, count"
scalar UniversityNetwork.FTPUploader.networkLayer.arp 	sentReply:count 	2
attr title  "ARP replies sent, count"
scalar UniversityNetwork.FTPUploader.networkLayer.arp 	sentReq:count 	5
attr title  "ARP request sent, count"
scalar UniversityNetwork.FTPUploader.networkLayer.arp 	failedARPResolution:count 	0
attr title  "ARP failed resolutions, count"
scalar UniversityNetwork.FTPUploader.networkLayer.arp 	completedARPResolution:count 	20
attr title  "ARP completed resolutions, count"
scalar UniversityNetwork.FTPUploader.lo0.lo 	rcvdPkFromHL:count 	0
attr interpolationmode  none
attr source  packetReceivedFromUpper
attr title  "packets received from higher layer, count"
scalar UniversityNetwork.FTPUploader.lo0.lo 	rcvdPkFromHL:sum(packetBytes) 	0
attr interpolationmode  none
attr source  packetReceivedFromUpper
attr title  "packets received from higher layer, sum(packetBytes)"
scalar UniversityNetwork.FTPUploader.lo0.lo 	passedUpPk:count 	0
attr interpolationmode  none
attr source  packetSentToUpper
attr title  "packets passed to higher layer, count"
scalar UniversityNetwork.FTPUploader.lo0.lo 	passedUpPk:sum(packetBytes) 	0
attr interpolationmode  none
attr source  packetSentToUpper
attr title  "packets passed to higher layer, sum(packetBytes)"
scalar UniversityNetwork.FTPUploader.lo0.lo 	droppedPkBitError:count 	0
attr interpolationmode  none
attr source  dropPkBitError
attr title  "packets dropped/bit error, count"
scalar UniversityNetwork.FTPUploader.lo0.lo 	droppedPkBitError:sum(packetBytes) 	0
attr interpolationmode  none
attr source  dropPkBitError
attr title  "packets dropped/bit error, sum(packetBytes)"
scalar UniversityNetwork.FTPUploader.wlan[0].agent 	dropConfirm:count 	0
attr title  "dropped confirms, count"
scalar UniversityNetwork.FTPUploader.wlan[0].agent 	acceptConfirm:count 	18
attr title  "accepted confirms, count"
scalar UniversityNetwork.FTPUploader.wlan[0].agent 	sentRequest:count 	18
attr title  "sent requests, count"
scalar UniversityNetwork.FTPUploader.wlan[0].mgmt 	dropPkByQueue:count 	1306
attr interpolationmode  none
attr source  dropPkByQueue
attr title  "packets dropped by queue, count"
scalar UniversityNetwork.FTPUploader.wlan[0].mgmt 	dropPkByQueue:sum(packetBytes) 	2013848
attr interpolationmode  none
attr source  dropPkByQueue
attr title  "packets dropped by queue, sum(packetBytes)"
scalar UniversityNetwork.FTPUploader.wlan[0].mgmt 	dataQueueLen:max 	50
attr interpolationmode  sample-hold
attr title  "data queue length, max"
scalar UniversityNetwork.FTPUploader.wlan[0].mgmt 	dataQueueLen:timeavg 	4.7782184713132
attr interpolationmode  sample-hold
attr title  "data queue length, timeavg"
scalar UniversityNetwork.FTPUploader.wlan[0].mac 	"number of received packets" 	105324
scalar UniversityNetwork.FTPUploader.wlan[0].mac 	"number of collisions" 	10178
scalar UniversityNetwork.FTPUploader.wlan[0].mac 	"number of internal collisions" 	0
scalar UniversityNetwork.FTPUploader.wlan[0].mac 	"number of retry for AC 0" 	23614
scalar UniversityNetwork.FTPUploader.wlan[0].mac 	"sent and received bits" 	1402162640
scalar UniversityNetwork.FTPUploader.wlan[0].mac 	"sent packet within AC 0" 	113712
scalar UniversityNetwork.FTPUploader.wlan[0].mac 	"sent in TXOP " 	0
scalar UniversityNetwork.FTPUploader.wlan[0].mac 	"sentWithoutRetry AC 0" 	95032
scalar UniversityNetwork.FTPUploader.wlan[0].mac 	"numGivenUp AC 0" 	3
scalar UniversityNetwork.FTPUploader.wlan[0].mac 	"numDropped AC 0" 	0
scalar UniversityNetwork.FTPUploader.wlan[0].mac 	rcvdPkFromHL:count 	113723
attr interpolationmode  none
attr source  packetReceivedFromUpper
attr title  "packets received from higher layer, count"
scalar UniversityNetwork.FTPUploader.wlan[0].mac 	rcvdPkFromHL:sum(packetBytes) 	175278040
attr interpolationmode  none
attr source  packetReceivedFromUpper
attr title  "packets received from higher layer, sum(packetBytes)"
scalar UniversityNetwork.FTPUploader.wlan[0].mac 	passedUpPk:count 	108216
attr interpolationmode  none
attr source  packetSentToUpper
attr title  "packets passed to higher layer, count"
scalar UniversityNetwork.FTPUploader.wlan[0].mac 	passedUpPk:sum(packetBytes) 	8859620
attr interpolationmode  none
attr source  packetSentToUpper
attr title  "packets passed to higher layer, sum(packetBytes)"
scalar UniversityNetwork.FTPUploader.wlan[0].mac 	rcvdPkFromLL:count 	829706
attr interpolationmode  none
attr source  packetReceivedFromLower
attr title  "packets received from lower layer, count"
scalar UniversityNetwork.FTPUploader.wlan[0].mac 	rcvdPkFromLL:sum(packetBytes) 	268387957
attr interpolationmode  none
attr source  packetReceivedFromLower
attr title  "packets received from lower layer, sum(packetBytes)"
[...]
attr title  "packets received, sum(packetBytes)"
statistic UniversityNetwork.Students[22].tcpApp[0] 	endToEndDelay:histogram
field count 11
field mean 7.1047410066435
field stddev 7.3627380486435
field sum 78.152151073079
field sqrsum 1097.3499082157
field min 0.4185413739
field max 24.925083978539
attr interpolationmode  none
attr source  messageAge(rcvdPk)
attr title  "end-to-end delay, histogram"
attr unit  s
bin	-INF	0
bin	-11.83472992842	0
bin	-10.200960421444	0
bin	-8.5671909144676	0
bin	-6.9334214074917	0
bin	-5.2996519005158	0
bin	-3.6658823935398	0
bin	-2.0321128865639	0
bin	-0.39834337958797	3
bin	1.235426127388	1
bin	2.8691956343639	2
bin	4.5029651413398	0
bin	6.1367346483158	1
bin	7.7705041552917	0
bin	9.4042736622676	2
bin	11.038043169244	0
bin	12.671812676219	1
bin	14.305582183195	0
bin	15.939351690171	0
bin	17.573121197147	0
bin	19.206890704123	0
bin	20.840660211099	0
bin	22.474429718075	0
bin	24.108199225051	1
bin	25.741968732027	0
bin	27.375738239003	0
bin	29.009507745979	0
bin	30.643277252955	0
bin	32.277046759931	0
bin	33.910816266907	0
bin	35.544585773883	0
bin	37.178355280858	0
scalar UniversityNetwork.Students[23].networkLayer.arp 	initiatedARPResolution:count 	3
attr title  "ARP initiated resolutions, count"
scalar UniversityNetwork.Students[23].networkLayer.arp 	sentReply:count 	0
attr title  "ARP replies sent, count"
scalar UniversityNetwork.Students[23].networkLayer.arp 	sentReq:count 	3
attr title  "ARP request sent, count"
scalar UniversityNetwork.Students[23].networkLayer.arp 	failedARPResolution:count 	0
attr title  "ARP failed resolutions, count"
scalar UniversityNetwork.Students[23].networkLayer.arp 	completedARPResolution:count 	3
attr title  "ARP completed resolutions, count"
scalar UniversityNetwork.Students[23].lo0.lo 	rcvdPkFromHL:count 	0
attr interpolationmode  none
attr source  packetReceivedFromUpper
attr title  "packets received from higher layer, count"
scalar UniversityNetwork.Students[23].lo0.lo 	rcvdPkFromHL:sum(packetBytes) 	0
attr interpolationmode  none
attr source  packetReceivedFromUpper
attr title  "packets received from higher layer, sum(packetBytes)"
scalar UniversityNetwork.Students[23].lo0.lo 	passedUpPk:count 	0
attr interpolationmode  none
attr source  packetSentToUpper
attr title  "packets passed to higher layer, count"
scalar UniversityNetwork.Students[23].lo0.lo 	passedUpPk:sum(packetBytes) 	0
attr interpolationmode  none
attr source  packetSentToUpper
attr title  "packets passed to higher layer, sum(packetBytes)"
scalar UniversityNetwork.Students[23].lo0.lo 	droppedPkBitError:count 	0
attr interpolationmode  none
attr source  dropPkBitError
attr title  "packets dropped/bit error, count"
scalar UniversityNetwork.Students[23].lo0.lo 	droppedPkBitError:sum(packetBytes) 	0
attr interpolationmode  none
attr source  dropPkBitError
attr title  "packets dropped/bit error, sum(packetBytes)"
scalar UniversityNetwork.Students[23].wlan[0].agent 	dropConfirm:count 	0
attr title  "dropped confirms, count"
scalar UniversityNetwork.Students[23].wlan[0].agent 	acceptConfirm:count 	18
attr title  "accepted confirms, count"
scalar UniversityNetwork.Students[23].wlan[0].agent 	sentRequest:count 	18
attr title  "sent requests, count"
scalar UniversityNetwork.Students[23].wlan[0].mgmt 	dropPkByQueue:count 	0
attr interpolationmode  none
attr source  dropPkByQueue
attr title  "packets dropped by queue, count"
scalar UniversityNetwork.Students[23].wlan[0].mgmt 	dropPkByQueue:sum(packetBytes) 	0
attr interpolationmode  none
attr source  dropPkByQueue
attr title  "packets dropped by queue, sum(packetBytes)"
scalar UniversityNetwork.Students[23].wlan[0].mgmt 	dataQueueLen:max 	9
attr interpolationmode  sample-hold
attr title  "data queue length, max"
scalar UniversityNetwork.Students[23].wlan[0].mgmt 	dataQueueLen:timeavg 	0.00258826634601
attr interpolationmode  sample-hold
attr title  "data queue length, timeavg"
scalar UniversityNetwork.Students[23].wlan[0].mac 	"number of received packets" 	6419
scalar UniversityNetwork.Students[23].wlan[0].mac 	"number of collisions" 	34019
scalar UniversityNetwork.Students[23].wlan[0].mac 	"number of internal collisions" 	0
scalar UniversityNetwork.Students[23].wlan[0].mac 	"number of retry for AC 0" 	547
scalar UniversityNetwork.Students[23].wlan[0].mac 	"sent and received bits" 	4316624
scalar UniversityNetwork.Students[23].wlan[0].mac 	"sent packet within AC 0" 	6430
scalar UniversityNetwork.Students[23].wlan[0].mac 	"sent in TXOP " 	0
scalar UniversityNetwork.Students[23].wlan[0].mac 	"sentWithoutRetry AC 0" 	5922
scalar UniversityNetwork.Students[23].wlan[0].mac 	"numGivenUp AC 0" 	0
scalar UniversityNetwork.Students[23].wlan[0].mac 	"numDropped AC 0" 	0
scalar UniversityNetwork.Students[23].wlan[0].mac 	rcvdPkFromHL:count 	6436
attr interpolationmode  none
attr source  packetReceivedFromUpper
attr title  "packets received from higher layer, count"
scalar UniversityNetwork.Students[23].wlan[0].mac 	rcvdPkFromHL:sum(packetBytes) 	539578
attr interpolationmode  none
attr source  packetReceivedFromUpper
attr title  "packets received from higher layer, sum(packetBytes)"
scalar UniversityNetwork.Students[23].wlan[0].mac 	passedUpPk:count 	9307
attr interpolationmode  none
attr source  packetSentToUpper
attr title  "packets passed to higher layer, count"
scalar UniversityNetwork.Students[23].wlan[0].mac 	passedUpPk:sum(packetBytes) 	9919298
attr interpolationmode  none
attr source  packetSentToUpper
attr title  "packets passed to higher layer, sum(packetBytes)"
scalar UniversityNetwork.Students[23].wlan[0].mac 	rcvdPkFromLL:count 	1059717
attr interpolationmode  none
attr source  packetReceivedFromLower
attr title  "packets received from lower layer, count"
scalar UniversityNetwork.Students[23].wlan[0].mac 	rcvdPkFromLL:sum(packetBytes) 	468707979
attr interpolationmode  none
attr source  packetReceivedFromLower
attr title  "packets received from lower layer, sum(packetBytes)"
scalar UniversityNetwork.Students[23].wlan[0].mac 	sentDownPk:count 	13402
attr interpolationmode  none
attr source  packetSentToLower
attr title  "packets sent to lower layer, count"
scalar UniversityNetwork.Students[23].wlan[0].mac 	sentDownPk:sum(packetBytes) 	675266
attr interpolationmode  none
attr source  packetSentToLower
attr title  "packets sent to lower layer, sum(packetBytes)"
scalar UniversityNetwork.Students[23].wlan[0].radio 	lossRate:min 	0
attr interpolationmode  backward-sample-hold
attr title  "packet loss rate, min"
scalar UniversityNetwork.Students[23].wlan[0].radio 	lossRate:max 	0.2
attr interpolationmode  backward-sample-hold
attr title  "packet loss rate, max"
scalar UniversityNetwork.Students[23].wlan[0].radio 	lossRate:timeavg 	0.031275475808747
attr interpolationmode  backward-sample-hold
attr title  "packet loss rate, timeavg"
statistic UniversityNetwork.Students[23].wlan[0].radio 	channelNo:histogram
field count 1
field mean 0
field stddev -nan
field sum 0
field sqrsum 0
field min 0
field max 0
attr interpolationmode  sample-hold
attr title  "channel no, histogram"
bin	-INF	0
bin	-0.5	0
bin	-0.46666666666667	0
bin	-0.43333333333333	0
bin	-0.4	0
bin	-0.36666666666667	0
bin	-0.33333333333333	0
bin	-0.3	0
bin	-0.26666666666667	0
bin	-0.23333333333333	0
bin	-0.2	0
bin	-0.16666666666667	0
bin	-0.13333333333333	0
bin	-0.1	0
bin	-0.066666666666667	0
bin	-0.033333333333333	0
bin	0	1
bin	0.033333333333333	0
bin	0.066666666666667	0
bin	0.1	0
bin	0.13333333333333	0
bin	0.16666666666667	0
bin	0.2	0
bin	0.23333333333333	0
bin	0.26666666666667	0
bin	0.3	0
bin	0.33333333333333	0
bin	0.36666666666667	0
bin	0.4	0
bin	0.43333333333333	0
bin	0.46666666666667	0
bin	0.5	0
scalar UniversityNetwork.Students[23].wlan[0].radio 	radioState:count 	2145435
attr interpolationmode  sample-hold
attr title  "radio state (enum), count"
scalar UniversityNetwork.Students[23].wlan[0].radio 	bitrate:min 	54000000
attr interpolationmode  sample-hold
attr title  "tx bitrate, min"
attr unit  bps
scalar UniversityNetwork.Students[23].wlan[0].radio 	bitrate:max 	54000000
attr interpolationmode  sample-hold
attr title  "tx bitrate, max"
attr unit  bps
scalar UniversityNetwork.Students[23].wlan[0].radio 	bitrate:timeavg 	54000000
attr interpolationmode  sample-hold
attr title  "tx bitrate, timeavg"
attr unit  bps
scalar UniversityNetwork.Students[23].tcpApp[0] 	numActiveSessions:max 	1
attr interpolationmode  sample-hold
attr source  sum(connect)
attr title  "number of active sessions, max"
scalar UniversityNetwork.Students[23].tcpApp[0] 	numActiveSessions:timeavg 	0.41541861038878
attr interpolationmode  sample-hold
attr source  sum(connect)
attr title  "number of active sessions, timeavg"
scalar UniversityNetwork.Students[23].tcpApp[0] 	numSessions:last 	17
attr source  sum(connect+1)/2
attr title  "total number of sessions, last"
scalar UniversityNetwork.Students[23].tcpApp[0] 	sentPk:count 	17
attr interpolationmode  none
attr source  sentPk
attr title  "packets sent, count"
scalar UniversityNetwork.Students[23].tcpApp[0] 	sentPk:sum(packetBytes) 	12750
attr interpolationmode  none
attr source  sentPk
attr title  "packets sent, sum(packetBytes)"
scalar UniversityNetwork.Students[23].tcpApp[0] 	rcvdPk:count 	16
attr interpolationmode  none
attr source  rcvdPk
attr title  "packets received, count"
scalar UniversityNetwork.Students[23].tcpApp[0] 	rcvdPk:sum(packetBytes) 	7202395
attr interpolationmode  none
attr source  rcvdPk
attr title  "packets received, sum(packetBytes)"
statistic UniversityNetwork.Students[23].tcpApp[0] 	endToEndDelay:histogram
field count 16
field mean 4.7567767522638
field stddev 4.4767700761374
field sum 76.10842803622
field sqrsum 662.65285585302
field min 0.455631791644
field max 14.849097007986
attr interpolationmode  none
attr source  messageAge(rcvdPk)
attr title  "end-to-end delay, histogram"
attr unit  s
bin	-INF	0
bin	-6.741100816527	0
bin	-5.7815364687709	0
bin	-4.8219721210147	0
bin	-3.8624077732586	0
bin	-2.9028434255025	0
bin	-1.9432790777463	0
bin	-0.9837147299902	0
bin	-0.024150382234066	4
bin	0.93541396552207	2
bin	1.8949783132782	0
bin	2.8545426610343	2
bin	3.8141070087905	1
bin	4.7736713565466	2
bin	5.7332357043027	1
bin	6.6928000520589	0
bin	7.652364399815	2
bin	8.6119287475711	0
bin	9.5714930953273	0
bin	10.531057443083	0
bin	11.49062179084	0
bin	12.450186138596	1
bin	13.409750486352	0
bin	14.369314834108	1
bin	15.328879181864	0
bin	16.28844352962	0
bin	17.248007877376	0
bin	18.207572225132	0
bin	19.167136572889	0
bin	20.126700920645	0
bin	21.086265268401	0
bin	22.045829616157	0
scalar UniversityNetwork.Students[24].networkLayer.arp 	initiatedARPResolution:count 	3
attr title  "ARP initiated resolutions, count"
scalar UniversityNetwork.Students[24].networkLayer.arp 	sentReply:count 	0
attr title  "ARP replies sent, count"
scalar UniversityNetwork.Students[24].networkLayer.arp 	sentReq:count 	3
attr title  "ARP request sent, count"
scalar UniversityNetwork.Students[24].networkLayer.arp 	failedARPResolution:count 	0
attr title  "ARP failed resolutions, count"
scalar UniversityNetwork.Students[24].networkLayer.arp 	completedARPResolution:count 	3
attr title  "ARP completed resolutions, count"
scalar UniversityNetwork.Students[24].lo0.lo 	rcvdPkFromHL:count 	0
attr interpolationmode  none
attr source  packetReceivedFromUpper
attr title  "packets received from higher layer, count"
scalar UniversityNetwork.Students[24].lo0.lo 	rcvdPkFromHL:sum(packetBytes) 	0
attr interpolationmode  none
attr source  packetReceivedFromUpper
attr title  "packets received from higher layer, sum(packetBytes)"
scalar UniversityNetwork.Students[24].lo0.lo 	passedUpPk:count 	0
attr interpolationmode  none
attr source  packetSentToUpper
attr title  "packets passed to higher layer, count"
scalar UniversityNetwork.Students[24].lo0.lo 	passedUpPk:sum(packetBytes) 	0
attr interpolationmode  none
attr source  packetSentToUpper
attr title  "packets passed to higher layer, sum(packetBytes)"
scalar UniversityNetwork.Students[24].lo0.lo 	droppedPkBitError:count 	0
attr interpolationmode  none
attr source  dropPkBitError
attr title  "packets dropped/bit error, count"
scalar UniversityNetwork.Students[24].lo0.lo 	droppedPkBitError:sum(packetBytes) 	0
attr interpolationmode  none
attr source  dropPkBitError
attr title  "packets dropped/bit error, sum(packetBytes)"
scalar UniversityNetwork.Students[24].wlan[0].agent 	dropConfirm:count 	0
attr title  "dropped confirms, count"
scalar UniversityNetwork.Students[24].wlan[0].agent 	acceptConfirm:count 	3
attr title  "accepted confirms, count"
scalar UniversityNetwork.Students[24].wlan[0].agent 	sentRequest:count 	3
attr title  "sent requests, count"
scalar UniversityNetwork.Students[24].wlan[0].mgmt 	dropPkByQueue:count 	0
attr interpolationmode  none
attr source  dropPkByQueue
attr title  "packets dropped by queue, count"
scalar UniversityNetwork.Students[24].wlan[0].mgmt 	dropPkByQueue:sum(packetBytes) 	0
attr interpolationmode  none
attr source  dropPkByQueue
attr title  "packets dropped by queue, sum(packetBytes)"
scalar UniversityNetwork.Students[24].wlan[0].mgmt 	dataQueueLen:max 	5
attr interpolationmode  sample-hold
attr title  "data queue length, max"
scalar UniversityNetwork.Students[24].wlan[0].mgmt 	dataQueueLen:timeavg 	0.00077162689823667
attr interpolationmode  sample-hold
attr title  "data queue length, timeavg"
scalar UniversityNetwork.Students[24].wlan[0].mac 	"number of received packets" 	4454
scalar UniversityNetwork.Students[24].wlan[0].mac 	"number of collisions" 	33351
scalar UniversityNetwork.Students[24].wlan[0].mac 	"number of internal collisions" 	0
scalar UniversityNetwork.Students[24].wlan[0].mac 	"number of retry for AC 0" 	292
scalar UniversityNetwork.Students[24].wlan[0].mac 	"sent and received bits" 	3008800
scalar UniversityNetwork.Students[24].wlan[0].mac 	"sent packet within AC 0" 	4468
scalar UniversityNetwork.Students[24].wlan[0].mac 	"sent in TXOP " 	0
scalar UniversityNetwork.Students[24].wlan[0].mac 	"sentWithoutRetry AC 0" 	4189
scalar UniversityNetwork.Students[24].wlan[0].mac 	"numGivenUp AC 0" 	0
scalar UniversityNetwork.Students[24].wlan[0].mac 	"numDropped AC 0" 	0
scalar UniversityNetwork.Students[24].wlan[0].mac 	rcvdPkFromHL:count 	4469
attr interpolationmode  none
attr source  packetReceivedFromUpper
attr title  "packets received from higher layer, count"
scalar UniversityNetwork.Students[24].wlan[0].mac 	rcvdPkFromHL:sum(packetBytes) 	376100
attr interpolationmode  none
attr source  packetReceivedFromUpper
attr title  "packets received from higher layer, sum(packetBytes)"
scalar UniversityNetwork.Students[24].wlan[0].mac 	passedUpPk:count 	7526
attr interpolationmode  none
attr source  packetSentToUpper
attr title  "packets passed to higher layer, count"
scalar UniversityNetwork.Students[24].wlan[0].mac 	passedUpPk:sum(packetBytes) 	6982680
attr interpolationmode  none
attr source  packetSentToUpper
attr title  "packets passed to higher layer, sum(packetBytes)"
scalar UniversityNetwork.Students[24].wlan[0].mac 	rcvdPkFromLL:count 	1063904
attr interpolationmode  none
attr source  packetReceivedFromLower
attr title  "packets received from lower layer, count"
scalar UniversityNetwork.Students[24].wlan[0].mac 	rcvdPkFromLL:sum(packetBytes) 	469205353
attr interpolationmode  none
attr source  packetReceivedFromLower
attr title  "packets received from lower layer, sum(packetBytes)"
scalar UniversityNetwork.Students[24].wlan[0].mac 	sentDownPk:count 	9215
attr interpolationmode  none
attr source  packetSentToLower
attr title  "packets sent to lower layer, count"
scalar UniversityNetwork.Students[24].wlan[0].mac 	sentDownPk:sum(packetBytes) 	464630
attr interpolationmode  none
attr source  packetSentToLower
attr title  "packets sent to lower layer, sum(packetBytes)"
scalar UniversityNetwork.Students[24].wlan[0].radio 	lossRate:min 	0
attr interpolationmode  backward-sample-hold
attr title  "packet loss rate, min"
scalar UniversityNetwork.Students[24].wlan[0].radio 	lossRate:max 	0.26
attr interpolationmode  backward-sample-hold
attr title  "packet loss rate, max"
scalar UniversityNetwork.Students[24].wlan[0].radio 	lossRate:timeavg 	0.030541889745722
attr interpolationmode  backward-sample-hold
attr title  "packet loss rate, timeavg"
statistic UniversityNetwork.Students[24].wlan[0].radio 	channelNo:histogram
field count 1
field mean 0
field stddev -nan
field sum 0
field sqrsum 0
field min 0
field max 0
attr interpolationmode  sample-hold
attr title  "channel no, histogram"
bin	-INF	0
bin	-0.5	0
bin	-0.46666666666667	0
bin	-0.43333333333333	0
bin	-0.4	0
bin	-0.36666666666667	0
bin	-0.33333333333333	0
bin	-0.3	0
bin	-0.26666666666667	0
bin	-0.23333333333333	0
bin	-0.2	0
bin	-0.16666666666667	0
bin	-0.13333333333333	0
bin	-0.1	0
bin	-0.066666666666667	0
bin	-0.033333333333333	0
bin	0	1
bin	0.033333333333333	0
bin	0.066666666666667	0
bin	0.1	0
bin	0.13333333333333	0
bin	0.16666666666667	0
bin	0.2	0
bin	0.23333333333333	0
bin	0.26666666666667	0
bin	0.3	0
bin	0.33333333333333	0
bin	0.36666666666667	0
bin	0.4	0
bin	0.43333333333333	0
bin	0.46666666666667	0
bin	0.5	0
scalar UniversityNetwork.Students[24].wlan[0].radio 	radioState:count 	2145092
attr interpolationmode  sample-hold
attr title  "radio state (enum), count"
scalar UniversityNetwork.Students[24].wlan[0].radio 	bitrate:min 	54000000
attr interpolationmode  sample-hold
attr title  "tx bitrate, min"
attr unit  bps
scalar UniversityNetwork.Students[24].wlan[0].radio 	bitrate:max 	54000000
attr interpolationmode  sample-hold
attr title  "tx bitrate, max"
attr unit  bps
scalar UniversityNetwork.Students[24].wlan[0].radio 	bitrate:timeavg 	54000000
attr interpolationmode  sample-hold
attr title  "tx bitrate, timeavg"
attr unit  bps
scalar UniversityNetwork.Students[24].tcpApp[0] 	numActiveSessions:max 	1
attr interpolationmode  sample-hold
attr source  sum(connect)
attr title  "number of active sessions, max"
scalar UniversityNetwork.Students[24].tcpApp[0] 	numActiveSessions:timeavg 	0.26806123102755
attr interpolationmode  sample-hold
attr source  sum(connect)
attr title  "number of active sessions, timeavg"
scalar UniversityNetwork.Students[24].tcpApp[0] 	numSessions:last 	13
attr source  sum(connect+1)/2
attr title  "total number of sessions, last"
scalar UniversityNetwork.Students[24].tcpApp[0] 	sentPk:count 	13
attr interpolationmode  none
attr source  sentPk
attr title  "packets sent, count"
scalar UniversityNetwork.Students[24].tcpApp[0] 	sentPk:sum(packetBytes) 	9750
attr interpolationmode  none
attr source  sentPk
attr title  "packets sent, sum(packetBytes)"
scalar UniversityNetwork.Students[24].tcpApp[0] 	rcvdPk:count 	12
attr interpolationmode  none
attr source  rcvdPk
attr title  "packets received, count"
scalar UniversityNetwork.Students[24].tcpApp[0] 	rcvdPk:sum(packetBytes) 	6032282
attr interpolationmode  none
attr source  rcvdPk
attr title  "packets received, sum(packetBytes)"
statistic UniversityNetwork.Students[24].tcpApp[0] 	endToEndDelay:histogram
field count 12
field mean 5.5904469253553
field stddev 6.2266716347996
field sum 67.085363104264
field sqrsum 801.52299802637
field min 0.507626833054
field max 18.270183974817
attr interpolationmode  none
attr source  messageAge(rcvdPk)
attr title  "end-to-end delay, histogram"
attr unit  s
bin	-INF	0
bin	-8.3736517378275	0
bin	-7.18948126171	0
bin	-6.0053107855924	0
bin	-4.8211403094749	0
bin	-3.6369698333574	0
bin	-2.4527993572398	0
bin	-1.2686288811223	0
bin	-0.084458405004765	4
bin	1.0997120711128	1
bin	2.2838825472303	2
bin	3.4680530233478	0
bin	4.6522234994654	1
bin	5.8363939755829	0
bin	7.0205644517004	1
bin	8.204734927818	0
bin	9.3889054039355	0
bin	10.573075880053	1
bin	11.757246356171	0
bin	12.941416832288	0
bin	14.125587308406	0
bin	15.309757784523	1
bin	16.493928260641	0
bin	17.678098736758	1
bin	18.862269212876	0
bin	20.046439688993	0
bin	21.230610165111	0
bin	22.414780641228	0
bin	23.598951117346	0
bin	24.783121593463	0
bin	25.967292069581	0
bin	27.151462545698	0
