version 2
run FiftyStudentsNOCCTV-16-20160815-05:12:05-367
attr configname FiftyStudentsNOCCTV
attr datetime 20160815-05:12:05
attr experiment FiftyStudentsNOCCTV
attr inifile omnetpp.ini
attr iterationvars ""
attr iterationvars2 $repetition=16
attr measurement ""
attr network UniversityNetwork
attr processid 367
attr repetition 16
attr replication #16
attr resultdir results
attr runnumber 16
attr seedset 16

scalar UniversityNetwork.CCTV.networkLayer.arp 	initiatedARPResolution:count 	0
attr title  "ARP initiated resolutions, count"
scalar UniversityNetwork.CCTV.networkLayer.arp 	sentReply:count 	0
attr title  "ARP replies sent, count"
scalar UniversityNetwork.CCTV.networkLayer.arp 	sentReq:count 	0
attr title  "ARP request sent, count"
scalar UniversityNetwork.CCTV.networkLayer.arp 	failedARPResolution:count 	0
attr title  "ARP failed resolutions, count"
scalar UniversityNetwork.CCTV.networkLayer.arp 	completedARPResolution:count 	0
attr title  "ARP completed resolutions, count"
scalar UniversityNetwork.CCTV.lo0.lo 	rcvdPkFromHL:count 	0
attr interpolationmode  none
attr source  packetReceivedFromUpper
attr title  "packets received from higher layer, count"
scalar UniversityNetwork.CCTV.lo0.lo 	rcvdPkFromHL:sum(packetBytes) 	0
attr interpolationmode  none
attr source  packetReceivedFromUpper
attr title  "packets received from higher layer, sum(packetBytes)"
scalar UniversityNetwork.CCTV.lo0.lo 	passedUpPk:count 	0
attr interpolationmode  none
attr source  packetSentToUpper
attr title  "packets passed to higher layer, count"
scalar UniversityNetwork.CCTV.lo0.lo 	passedUpPk:sum(packetBytes) 	0
attr interpolationmode  none
attr source  packetSentToUpper
attr title  "packets passed to higher layer, sum(packetBytes)"
scalar UniversityNetwork.CCTV.lo0.lo 	droppedPkBitError:count 	0
attr interpolationmode  none
attr source  dropPkBitError
attr title  "packets dropped/bit error, count"
scalar UniversityNetwork.CCTV.lo0.lo 	droppedPkBitError:sum(packetBytes) 	0
attr interpolationmode  none
attr source  dropPkBitError
attr title  "packets dropped/bit error, sum(packetBytes)"
scalar UniversityNetwork.CCTV.ppp[0].inputHook[0] 	duration 	300
scalar UniversityNetwork.CCTV.ppp[0].inputHook[0] 	"total packets" 	0
scalar UniversityNetwork.CCTV.ppp[0].inputHook[0] 	"total bits" 	0
scalar UniversityNetwork.CCTV.ppp[0].inputHook[0] 	"avg throughput (bit/s)" 	0
scalar UniversityNetwork.CCTV.ppp[0].inputHook[0] 	"avg packets/s" 	0
statistic UniversityNetwork.CCTV.ppp[0].queue 	queueingTime:histogram
field count 0
field mean -nan
field stddev -nan
field sum 0
field sqrsum 0
field min -nan
field max -nan
attr interpolationmode  none
attr title  "queueing time, histogram"
bin	-INF	0
bin	-0.5	0
bin	-0.46666666666667	0
bin	-0.43333333333333	0
bin	-0.4	0
bin	-0.36666666666667	0
bin	-0.33333333333333	0
bin	-0.3	0
bin	-0.26666666666667	0
bin	-0.23333333333333	0
bin	-0.2	0
bin	-0.16666666666667	0
bin	-0.13333333333333	0
bin	-0.1	0
bin	-0.066666666666667	0
bin	-0.033333333333333	0
bin	0	0
bin	0.033333333333333	0
bin	0.066666666666667	0
bin	0.1	0
bin	0.13333333333333	0
bin	0.16666666666667	0
bin	0.2	0
bin	0.23333333333333	0
bin	0.26666666666667	0
bin	0.3	0
bin	0.33333333333333	0
bin	0.36666666666667	0
bin	0.4	0
bin	0.43333333333333	0
bin	0.46666666666667	0
bin	0.5	0
scalar UniversityNetwork.CCTV.ppp[0].queue 	dropPk:count 	0
attr interpolationmode  none
attr source  dropPkByQueue
attr title  "dropped packets, count"
scalar UniversityNetwork.CCTV.ppp[0].queue 	dropPk:sum(packetBytes) 	0
attr interpolationmode  none
attr source  dropPkByQueue
attr title  "dropped packets, sum(packetBytes)"
scalar UniversityNetwork.CCTV.ppp[0].queue 	queueLength:max 	0
attr interpolationmode  sample-hold
attr title  "queue length, max"
scalar UniversityNetwork.CCTV.ppp[0].queue 	queueLength:timeavg 	0
attr interpolationmode  sample-hold
attr title  "queue length, timeavg"
scalar UniversityNetwork.CCTV.ppp[0].queue 	rcvdPk:count 	0
attr interpolationmode  none
attr title  "received packets, count"
scalar UniversityNetwork.CCTV.ppp[0].queue 	rcvdPk:sum(packetBytes) 	0
attr interpolationmode  none
attr title  "received packets, sum(packetBytes)"
scalar UniversityNetwork.CCTV.ppp[0].ppp 	rcvdPkFromHL:count 	0
attr interpolationmode  none
attr source  packetReceivedFromUpper
attr title  "packets received from higher layer, count"
scalar UniversityNetwork.CCTV.ppp[0].ppp 	rcvdPkFromHL:sum(packetBytes) 	0
attr interpolationmode  none
attr source  packetReceivedFromUpper
attr title  "packets received from higher layer, sum(packetBytes)"
scalar UniversityNetwork.CCTV.ppp[0].ppp 	passedUpPk:count 	0
attr interpolationmode  none
attr source  packetSentToUpper
attr title  "packets passed to higher layer, count"
scalar UniversityNetwork.CCTV.ppp[0].ppp 	passedUpPk:sum(packetBytes) 	0
attr interpolationmode  none
attr source  packetSentToUpper
attr title  "packets passed to higher layer, sum(packetBytes)"
scalar UniversityNetwork.CCTV.ppp[0].ppp 	txPk:count 	0
attr interpolationmode  none
attr source  packetSentToLower
attr title  "packets transmitted, count"
scalar UniversityNetwork.CCTV.ppp[0].ppp 	txPk:sum(packetBytes) 	0
attr interpolationmode  none
attr source  packetSentToLower
attr title  "packets transmitted, sum(packetBytes)"
scalar UniversityNetwork.CCTV.ppp[0].ppp 	droppedPkBitError:count 	0
attr interpolationmode  none
attr source  dropPkBitError
attr title  "packets dropped/bit error, count"
scalar UniversityNetwork.CCTV.ppp[0].ppp 	droppedPkBitError:sum(packetBytes) 	0
attr interpolationmode  none
attr source  dropPkBitError
attr title  "packets dropped/bit error, sum(packetBytes)"
scalar UniversityNetwork.CCTV.ppp[0].ppp 	droppedPkIfaceDown:count 	0
attr interpolationmode  none
attr source  dropPkIfaceDown
attr title  "packets dropped/interface down, count"
scalar UniversityNetwork.CCTV.ppp[0].ppp 	droppedPkIfaceDown:sum(packetBytes) 	0
attr interpolationmode  none
attr source  dropPkIfaceDown
attr title  "packets dropped/interface down, sum(packetBytes)"
scalar UniversityNetwork.CCTV.ppp[0].ppp 	rxPkOk:count 	0
attr interpolationmode  none
attr source  rxPkOk
attr title  "packets received OK, count"
scalar UniversityNetwork.CCTV.ppp[0].ppp 	rxPkOk:sum(packetBytes) 	0
attr interpolationmode  none
attr source  rxPkOk
attr title  "packets received OK, sum(packetBytes)"
scalar UniversityNetwork.CCTV.ppp[0].ppp 	txState:timeavg 	0
attr interpolationmode  sample-hold
attr title  "tx state, timeavg"
scalar UniversityNetwork.CCTVMonitoring.networkLayer.arp 	initiatedARPResolution:count 	0
attr title  "ARP initiated resolutions, count"
scalar UniversityNetwork.CCTVMonitoring.networkLayer.arp 	sentReply:count 	0
attr title  "ARP replies sent, count"
scalar UniversityNetwork.CCTVMonitoring.networkLayer.arp 	sentReq:count 	0
attr title  "ARP request sent, count"
scalar UniversityNetwork.CCTVMonitoring.networkLayer.arp 	failedARPResolution:count 	0
attr title  "ARP failed resolutions, count"
scalar UniversityNetwork.CCTVMonitoring.networkLayer.arp 	completedARPResolution:count 	0
attr title  "ARP completed resolutions, count"
scalar UniversityNetwork.CCTVMonitoring.lo0.lo 	rcvdPkFromHL:count 	0
attr interpolationmode  none
attr source  packetReceivedFromUpper
attr title  "packets received from higher layer, count"
scalar UniversityNetwork.CCTVMonitoring.lo0.lo 	rcvdPkFromHL:sum(packetBytes) 	0
attr interpolationmode  none
attr source  packetReceivedFromUpper
attr title  "packets received from higher layer, sum(packetBytes)"
scalar UniversityNetwork.CCTVMonitoring.lo0.lo 	passedUpPk:count 	0
attr interpolationmode  none
attr source  packetSentToUpper
attr title  "packets passed to higher layer, count"
scalar UniversityNetwork.CCTVMonitoring.lo0.lo 	passedUpPk:sum(packetBytes) 	0
attr interpolationmode  none
attr source  packetSentToUpper
attr title  "packets passed to higher layer, sum(packetBytes)"
scalar UniversityNetwork.CCTVMonitoring.lo0.lo 	droppedPkBitError:count 	0
attr interpolationmode  none
attr source  dropPkBitError
attr title  "packets dropped/bit error, count"
scalar UniversityNetwork.CCTVMonitoring.lo0.lo 	droppedPkBitError:sum(packetBytes) 	0
attr interpolationmode  none
attr source  dropPkBitError
attr title  "packets dropped/bit error, sum(packetBytes)"
scalar UniversityNetwork.CCTVMonitoring.ppp[0].inputHook[0] 	duration 	300
scalar UniversityNetwork.CCTVMonitoring.ppp[0].inputHook[0] 	"total packets" 	0
scalar UniversityNetwork.CCTVMonitoring.ppp[0].inputHook[0] 	"total bits" 	0
scalar UniversityNetwork.CCTVMonitoring.ppp[0].inputHook[0] 	"avg throughput (bit/s)" 	0
scalar UniversityNetwork.CCTVMonitoring.ppp[0].inputHook[0] 	"avg packets/s" 	0
statistic UniversityNetwork.CCTVMonitoring.ppp[0].queue 	queueingTime:histogram
field count 0
field mean -nan
field stddev -nan
field sum 0
field sqrsum 0
field min -nan
field max -nan
attr interpolationmode  none
attr title  "queueing time, histogram"
bin	-INF	0
bin	-0.5	0
bin	-0.46666666666667	0
bin	-0.43333333333333	0
bin	-0.4	0
bin	-0.36666666666667	0
bin	-0.33333333333333	0
bin	-0.3	0
bin	-0.26666666666667	0
bin	-0.23333333333333	0
bin	-0.2	0
bin	-0.16666666666667	0
bin	-0.13333333333333	0
bin	-0.1	0
bin	-0.066666666666667	0
bin	-0.033333333333333	0
bin	0	0
bin	0.033333333333333	0
bin	0.066666666666667	0
bin	0.1	0
bin	0.13333333333333	0
bin	0.16666666666667	0
bin	0.2	0
bin	0.23333333333333	0
bin	0.26666666666667	0
bin	0.3	0
bin	0.33333333333333	0
bin	0.36666666666667	0
bin	0.4	0
bin	0.43333333333333	0
bin	0.46666666666667	0
bin	0.5	0
scalar UniversityNetwork.CCTVMonitoring.ppp[0].queue 	dropPk:count 	0
attr interpolationmode  none
attr source  dropPkByQueue
attr title  "dropped packets, count"
scalar UniversityNetwork.CCTVMonitoring.ppp[0].queue 	dropPk:sum(packetBytes) 	0
attr interpolationmode  none
attr source  dropPkByQueue
attr title  "dropped packets, sum(packetBytes)"
scalar UniversityNetwork.CCTVMonitoring.ppp[0].queue 	queueLength:max 	0
attr interpolationmode  sample-hold
attr title  "queue length, max"
scalar UniversityNetwork.CCTVMonitoring.ppp[0].queue 	queueLength:timeavg 	0
attr interpolationmode  sample-hold
attr title  "queue length, timeavg"
scalar UniversityNetwork.CCTVMonitoring.ppp[0].queue 	rcvdPk:count 	0
attr interpolationmode  none
attr title  "received packets, count"
scalar UniversityNetwork.CCTVMonitoring.ppp[0].queue 	rcvdPk:sum(packetBytes) 	0
attr interpolationmode  none
attr title  "received packets, sum(packetBytes)"
scalar UniversityNetwork.CCTVMonitoring.ppp[0].ppp 	rcvdPkFromHL:count 	0
attr interpolationmode  none
attr source  packetReceivedFromUpper
attr title  "packets received from higher layer, count"
scalar UniversityNetwork.CCTVMonitoring.ppp[0].ppp 	rcvdPkFromHL:sum(packetBytes) 	0
attr interpolationmode  none
attr source  packetReceivedFromUpper
attr title  "packets received from higher layer, sum(packetBytes)"
scalar UniversityNetwork.CCTVMonitoring.ppp[0].ppp 	passedUpPk:count 	0
attr interpolationmode  none
attr source  packetSentToUpper
attr title  "packets passed to higher layer, count"
scalar UniversityNetwork.CCTVMonitoring.ppp[0].ppp 	passedUpPk:sum(packetBytes) 	0
attr interpolationmode  none
attr source  packetSentToUpper
attr title  "packets passed to higher layer, sum(packetBytes)"
scalar UniversityNetwork.CCTVMonitoring.ppp[0].ppp 	txPk:count 	0
attr interpolationmode  none
attr source  packetSentToLower
attr title  "packets transmitted, count"
scalar UniversityNetwork.CCTVMonitoring.ppp[0].ppp 	txPk:sum(packetBytes) 	0
attr interpolationmode  none
attr source  packetSentToLower
attr title  "packets transmitted, sum(packetBytes)"
scalar UniversityNetwork.CCTVMonitoring.ppp[0].ppp 	droppedPkBitError:count 	0
attr interpolationmode  none
attr source  dropPkBitError
attr title  "packets dropped/bit error, count"
scalar UniversityNetwork.CCTVMonitoring.ppp[0].ppp 	droppedPkBitError:sum(packetBytes) 	0
attr interpolationmode  none
attr source  dropPkBitError
attr title  "packets dropped/bit error, sum(packetBytes)"
scalar UniversityNetwork.CCTVMonitoring.ppp[0].ppp 	droppedPkIfaceDown:count 	0
attr interpolationmode  none
attr source  dropPkIfaceDown
attr title  "packets dropped/interface down, count"
scalar UniversityNetwork.CCTVMonitoring.ppp[0].ppp 	droppedPkIfaceDown:sum(packetBytes) 	0
attr interpolationmode  none
attr source  dropPkIfaceDown
attr title  "packets dropped/interface down, sum(packetBytes)"
scalar UniversityNetwork.CCTVMonitoring.ppp[0].ppp 	rxPkOk:count 	0
attr interpolationmode  none
attr source  rxPkOk
attr title  "packets received OK, count"
scalar UniversityNetwork.CCTVMonitoring.ppp[0].ppp 	rxPkOk:sum(packetBytes) 	0
attr interpolationmode  none
attr source  rxPkOk
attr title  "packets received OK, sum(packetBytes)"
scalar UniversityNetwork.CCTVMonitoring.ppp[0].ppp 	txState:timeavg 	0
attr interpolationmode  sample-hold
attr title  "tx state, timeavg"
scalar UniversityNetwork.main.networkLayer.arp 	initiatedARPResolution:count 	0
attr title  "ARP initiated resolutions, count"
scalar UniversityNetwork.main.networkLayer.arp 	sentReply:count 	0
attr title  "ARP replies sent, count"
scalar UniversityNetwork.main.networkLayer.arp 	sentReq:count 	0
attr title  "ARP request sent, count"
scalar UniversityNetwork.main.networkLayer.arp 	failedARPResolution:count 	0
attr title  "ARP failed resolutions, count"
scalar UniversityNetwork.main.networkLayer.arp 	completedARPResolution:count 	0
attr title  "ARP completed resolutions, count"
scalar UniversityNetwork.main.lo0.lo 	rcvdPkFromHL:count 	0
attr interpolationmode  none
attr source  packetReceivedFromUpper
attr title  "packets received from higher layer, count"
scalar UniversityNetwork.main.lo0.lo 	rcvdPkFromHL:sum(packetBytes) 	0
attr interpolationmode  none
attr source  packetReceivedFromUpper
attr title  "packets received from higher layer, sum(packetBytes)"
scalar UniversityNetwork.main.lo0.lo 	passedUpPk:count 	0
attr interpolationmode  none
attr source  packetSentToUpper
attr title  "packets passed to higher layer, count"
scalar UniversityNetwork.main.lo0.lo 	passedUpPk:sum(packetBytes) 	0
attr interpolationmode  none
attr source  packetSentToUpper
attr title  "packets passed to higher layer, sum(packetBytes)"
scalar UniversityNetwork.main.lo0.lo 	droppedPkBitError:count 	0
attr interpolationmode  none
attr source  dropPkBitError
attr title  "packets dropped/bit error, count"
scalar UniversityNetwork.main.lo0.lo 	droppedPkBitError:sum(packetBytes) 	0
attr interpolationmode  none
attr source  dropPkBitError
attr title  "packets dropped/bit error, sum(packetBytes)"
scalar UniversityNetwork.main.ppp[0].inputHook[0] 	duration 	300
scalar UniversityNetwork.main.ppp[0].inputHook[0] 	"total packets" 	280509
scalar UniversityNetwork.main.ppp[0].inputHook[0] 	"total bits" 	374986176
scalar UniversityNetwork.main.ppp[0].inputHook[0] 	"avg throughput (bit/s)" 	1249953.92
scalar UniversityNetwork.main.ppp[0].inputHook[0] 	"avg packets/s" 	935.03
statistic UniversityNetwork.main.ppp[0].queue 	queueingTime:histogram
field count 287586
field mean 0.0094932245135024
field stddev 0.01119420185787
field sum 2730.1184649401
field sqrsum 61.954948529315
field min 0
field max 0.040185818002
attr interpolationmode  none
attr title  "queueing time, histogram"
bin	-INF	0
bin	-0.0004818219795	0
bin	-0.0004175790489	0
bin	-0.0003533361183	0
bin	-0.0002890931877	0
bin	-0.0002248502571	0
bin	-0.0001606073265	0
bin	-9.63643959e-05	0
bin	-3.21214653e-05	38806
bin	3.21214653e-05	1778
bin	9.63643959e-05	1303
bin	0.0001606073265	1395
bin	0.0002248502571	1095
bin	0.0002890931877	1458
bin	0.0003533361183	1438
bin	0.0004175790489	1169
bin	0.0004818219795	1526
bin	0.0005460649101	2788
bin	0.0006103078407	2113
bin	0.0006745507713	1293
bin	0.0007387937019	1285
bin	0.0008030366325	1322
bin	0.0008672795631	8500
bin	0.0009315224937	3926
bin	0.0009957654243	2865
bin	0.0010600083549	1658
bin	0.0011242512855	1632
bin	0.0011884942161	1824
bin	0.0012527371467	1579
bin	0.0013169800773	1503
bin	0.0013812230079	1484
bin	0.0014454659385	203846
scalar UniversityNetwork.main.ppp[0].queue 	dropPk:count 	4443
attr interpolationmode  none
attr source  dropPkByQueue
attr title  "dropped packets, count"
scalar UniversityNetwork.main.ppp[0].queue 	dropPk:sum(packetBytes) 	6588881
attr interpolationmode  none
attr source  dropPkByQueue
attr title  "dropped packets, sum(packetBytes)"
scalar UniversityNetwork.main.ppp[0].queue 	queueLength:max 	40
attr interpolationmode  sample-hold
attr title  "queue length, max"
scalar UniversityNetwork.main.ppp[0].queue 	queueLength:timeavg 	9.1009351397822
attr interpolationmode  sample-hold
attr title  "queue length, timeavg"
scalar UniversityNetwork.main.ppp[0].queue 	rcvdPk:count 	292049
attr interpolationmode  none
attr title  "received packets, count"
scalar UniversityNetwork.main.ppp[0].queue 	rcvdPk:sum(packetBytes) 	405388034
attr interpolationmode  none
attr title  "received packets, sum(packetBytes)"
scalar UniversityNetwork.main.ppp[0].ppp 	rcvdPkFromHL:count 	287586
attr interpolationmode  none
attr source  packetReceivedFromUpper
attr title  "packets received from higher layer, count"
scalar UniversityNetwork.main.ppp[0].ppp 	rcvdPkFromHL:sum(packetBytes) 	398769153
attr interpolationmode  none
attr source  packetReceivedFromUpper
attr title  "packets received from higher layer, sum(packetBytes)"
scalar UniversityNetwork.main.ppp[0].ppp 	passedUpPk:count 	280509
attr interpolationmode  none
attr source  packetSentToUpper
attr title  "packets passed to higher layer, count"
scalar UniversityNetwork.main.ppp[0].ppp 	passedUpPk:sum(packetBytes) 	46873272
attr interpolationmode  none
attr source  packetSentToUpper
attr title  "packets passed to higher layer, sum(packetBytes)"
scalar UniversityNetwork.main.ppp[0].ppp 	txPk:count 	287586
attr interpolationmode  none
attr source  packetSentToLower
attr title  "packets transmitted, count"
scalar UniversityNetwork.main.ppp[0].ppp 	txPk:sum(packetBytes) 	400782255
attr interpolationmode  none
attr source  packetSentToLower
attr title  "packets transmitted, sum(packetBytes)"
scalar UniversityNetwork.main.ppp[0].ppp 	droppedPkBitError:count 	0
attr interpolationmode  none
attr source  dropPkBitError
attr title  "packets dropped/bit error, count"
scalar UniversityNetwork.main.ppp[0].ppp 	droppedPkBitError:sum(packetBytes) 	0
attr interpolationmode  none
attr source  dropPkBitError
attr title  "packets dropped/bit error, sum(packetBytes)"
scalar UniversityNetwork.main.ppp[0].ppp 	droppedPkIfaceDown:count 	0
attr interpolationmode  none
attr source  dropPkIfaceDown
attr title  "packets dropped/interface down, count"
scalar UniversityNetwork.main.ppp[0].ppp 	droppedPkIfaceDown:sum(packetBytes) 	0
attr interpolationmode  none
attr source  dropPkIfaceDown
attr title  "packets dropped/interface down, sum(packetBytes)"
scalar UniversityNetwork.main.ppp[0].ppp 	rxPkOk:count 	280509
attr interpolationmode  none
attr source  rxPkOk
attr title  "packets received OK, count"
scalar UniversityNetwork.main.ppp[0].ppp 	rxPkOk:sum(packetBytes) 	48836835
attr interpolationmode  none
attr source  rxPkOk
attr title  "packets received OK, sum(packetBytes)"
scalar UniversityNetwork.main.ppp[0].ppp 	txState:timeavg 	0.89062582797472
attr interpolationmode  sample-hold
attr title  "tx state, timeavg"
scalar UniversityNetwork.main.ppp[1].inputHook[0] 	duration 	300
scalar UniversityNetwork.main.ppp[1].inputHook[0] 	"total packets" 	0
scalar UniversityNetwork.main.ppp[1].inputHook[0] 	"total bits" 	0
scalar UniversityNetwork.main.ppp[1].inputHook[0] 	"avg throughput (bit/s)" 	0
scalar UniversityNetwork.main.ppp[1].inputHook[0] 	"avg packets/s" 	0
statistic UniversityNetwork.main.ppp[1].queue 	queueingTime:histogram
field count 0
field mean -nan
field stddev -nan
field sum 0
field sqrsum 0
field min -nan
field max -nan
attr interpolationmode  none
attr title  "queueing time, histogram"
bin	-INF	0
bin	-0.5	0
bin	-0.46666666666667	0
bin	-0.43333333333333	0
bin	-0.4	0
bin	-0.36666666666667	0
bin	-0.33333333333333	0
bin	-0.3	0
bin	-0.26666666666667	0
bin	-0.23333333333333	0
bin	-0.2	0
bin	-0.16666666666667	0
bin	-0.13333333333333	0
bin	-0.1	0
bin	-0.066666666666667	0
bin	-0.033333333333333	0
bin	0	0
bin	0.033333333333333	0
bin	0.066666666666667	0
bin	0.1	0
bin	0.13333333333333	0
bin	0.16666666666667	0
bin	0.2	0
bin	0.23333333333333	0
bin	0.26666666666667	0
bin	0.3	0
bin	0.33333333333333	0
bin	0.36666666666667	0
bin	0.4	0
bin	0.43333333333333	0
bin	0.46666666666667	0
bin	0.5	0
scalar UniversityNetwork.main.ppp[1].queue 	dropPk:count 	0
attr interpolationmode  none
attr source  dropPkByQueue
attr title  "dropped packets, count"
scalar UniversityNetwork.main.ppp[1].queue 	dropPk:sum(packetBytes) 	0
attr interpolationmode  none
attr source  dropPkByQueue
attr title  "dropped packets, sum(packetBytes)"
scalar UniversityNetwork.main.ppp[1].queue 	queueLength:max 	0
attr interpolationmode  sample-hold
attr title  "queue length, max"
scalar UniversityNetwork.main.ppp[1].queue 	queueLength:timeavg 	0
attr interpolationmode  sample-hold
attr title  "queue length, timeavg"
scalar UniversityNetwork.main.ppp[1].queue 	rcvdPk:count 	0
attr interpolationmode  none
attr title  "received packets, count"
scalar UniversityNetwork.main.ppp[1].queue 	rcvdPk:sum(packetBytes) 	0
attr interpolationmode  none
attr title  "received packets, sum(packetBytes)"
scalar UniversityNetwork.main.ppp[1].ppp 	rcvdPkFromHL:count 	0
attr interpolationmode  none
attr source  packetReceivedFromUpper
attr title  "packets received from higher layer, count"
scalar UniversityNetwork.main.ppp[1].ppp 	rcvdPkFromHL:sum(packetBytes) 	0
attr interpolationmode  none
attr source  packetReceivedFromUpper
attr title  "packets received from higher layer, sum(packetBytes)"
scalar UniversityNetwork.main.ppp[1].ppp 	passedUpPk:count 	0
attr interpolationmode  none
attr source  packetSentToUpper
attr title  "packets passed to higher layer, count"
scalar UniversityNetwork.main.ppp[1].ppp 	passedUpPk:sum(packetBytes) 	0
attr interpolationmode  none
attr source  packetSentToUpper
attr title  "packets passed to higher layer, sum(packetBytes)"
scalar UniversityNetwork.main.ppp[1].ppp 	txPk:count 	0
attr interpolationmode  none
attr source  packetSentToLower
attr title  "packets transmitted, count"
scalar UniversityNetwork.main.ppp[1].ppp 	txPk:sum(packetBytes) 	0
attr interpolationmode  none
attr source  packetSentToLower
attr title  "packets transmitted, sum(packetBytes)"
scalar UniversityNetwork.main.ppp[1].ppp 	droppedPkBitError:count 	0
attr interpolationmode  none
attr source  dropPkBitError
attr title  "packets dropped/bit error, count"
scalar UniversityNetwork.main.ppp[1].ppp 	droppedPkBitError:sum(packetBytes) 	0
attr interpolationmode  none
attr source  dropPkBitError
attr title  "packets dropped/bit error, sum(packetBytes)"
scalar UniversityNetwork.main.ppp[1].ppp 	droppedPkIfaceDown:count 	0
attr interpolationmode  none
attr source  dropPkIfaceDown
attr title  "packets dropped/interface down, count"
scalar UniversityNetwork.main.ppp[1].ppp 	droppedPkIfaceDown:sum(packetBytes) 	0
attr interpolationmode  none
attr source  dropPkIfaceDown
attr title  "packets dropped/interface down, sum(packetBytes)"
scalar UniversityNetwork.main.ppp[1].ppp 	rxPkOk:count 	0
attr interpolationmode  none
attr source  rxPkOk
attr title  "packets received OK, count"
scalar UniversityNetwork.main.ppp[1].ppp 	rxPkOk:sum(packetBytes) 	0
attr interpolationmode  none
attr source  rxPkOk
attr title  "packets received OK, sum(packetBytes)"
scalar UniversityNetwork.main.ppp[1].ppp 	txState:timeavg 	0
attr interpolationmode  sample-hold
attr title  "tx state, timeavg"
scalar UniversityNetwork.main.ppp[2].inputHook[0] 	duration 	300
scalar UniversityNetwork.main.ppp[2].inputHook[0] 	"total packets" 	284550
scalar UniversityNetwork.main.ppp[2].inputHook[0] 	"total bits" 	3157435696
scalar UniversityNetwork.main.ppp[2].inputHook[0] 	"avg throughput (bit/s)" 	10524785.653333
scalar UniversityNetwork.main.ppp[2].inputHook[0] 	"avg packets/s" 	948.5
statistic UniversityNetwork.main.ppp[2].queue 	queueingTime:histogram
field count 273010
field mean 2.0886085464342e-06
field stddev 1.3405313506166e-05
field sum 0.57021101926199
field sqrsum 5.0251328374192e-05
field min 0
field max 8.9226667e-05
attr interpolationmode  none
attr title  "queueing time, histogram"
bin	-INF	0
bin	-0.5	0
bin	-0.46666666666667	0
bin	-0.43333333333333	0
bin	-0.4	0
bin	-0.36666666666667	0
bin	-0.33333333333333	0
bin	-0.3	0
bin	-0.26666666666667	0
bin	-0.23333333333333	0
bin	-0.2	0
bin	-0.16666666666667	0
bin	-0.13333333333333	0
bin	-0.1	0
bin	-0.066666666666667	0
bin	-0.033333333333333	0
bin	0	273010
bin	0.033333333333333	0
bin	0.066666666666667	0
bin	0.1	0
bin	0.13333333333333	0
bin	0.16666666666667	0
bin	0.2	0
bin	0.23333333333333	0
bin	0.26666666666667	0
bin	0.3	0
bin	0.33333333333333	0
bin	0.36666666666667	0
bin	0.4	0
bin	0.43333333333333	0
bin	0.46666666666667	0
bin	0.5	0
scalar UniversityNetwork.main.ppp[2].queue 	dropPk:count 	0
attr interpolationmode  none
attr source  dropPkByQueue
attr title  "dropped packets, count"
scalar UniversityNetwork.main.ppp[2].queue 	dropPk:sum(packetBytes) 	0
attr interpolationmode  none
attr source  dropPkByQueue
attr title  "dropped packets, sum(packetBytes)"
scalar UniversityNetwork.main.ppp[2].queue 	queueLength:max 	3
attr interpolationmode  sample-hold
attr title  "queue length, max"
scalar UniversityNetwork.main.ppp[2].queue 	queueLength:timeavg 	0.00190070339754
attr interpolationmode  sample-hold
attr title  "queue length, timeavg"
scalar UniversityNetwork.main.ppp[2].queue 	rcvdPk:count 	273010
attr interpolationmode  none
attr title  "received packets, count"
scalar UniversityNetwork.main.ppp[2].queue 	rcvdPk:sum(packetBytes) 	36164700
attr interpolationmode  none
attr title  "received packets, sum(packetBytes)"
scalar UniversityNetwork.main.ppp[2].ppp 	rcvdPkFromHL:count 	273010
attr interpolationmode  none
attr source  packetReceivedFromUpper
attr title  "packets received from higher layer, count"
scalar UniversityNetwork.main.ppp[2].ppp 	rcvdPkFromHL:sum(packetBytes) 	36164700
attr interpolationmode  none
attr source  packetReceivedFromUpper
attr title  "packets received from higher layer, sum(packetBytes)"
scalar UniversityNetwork.main.ppp[2].ppp 	passedUpPk:count 	284550
attr interpolationmode  none
attr source  packetSentToUpper
attr title  "packets passed to higher layer, count"
scalar UniversityNetwork.main.ppp[2].ppp 	passedUpPk:sum(packetBytes) 	394679462
attr interpolationmode  none
attr source  packetSentToUpper
attr title  "packets passed to higher layer, sum(packetBytes)"
scalar UniversityNetwork.main.ppp[2].ppp 	txPk:count 	273010
attr interpolationmode  none
attr source  packetSentToLower
attr title  "packets transmitted, count"
scalar UniversityNetwork.main.ppp[2].ppp 	txPk:sum(packetBytes) 	38075770
attr interpolationmode  none
attr source  packetSentToLower
attr title  "packets transmitted, sum(packetBytes)"
scalar UniversityNetwork.main.ppp[2].ppp 	droppedPkBitError:count 	0
attr interpolationmode  none
attr source  dropPkBitError
attr title  "packets dropped/bit error, count"
scalar UniversityNetwork.main.ppp[2].ppp 	droppedPkBitError:sum(packetBytes) 	0
attr interpolationmode  none
attr source  dropPkBitError
attr title  "packets dropped/bit error, sum(packetBytes)"
scalar UniversityNetwork.main.ppp[2].ppp 	droppedPkIfaceDown:count 	0
attr interpolationmode  none
attr source  dropPkIfaceDown
attr title  "packets dropped/interface down, count"
scalar UniversityNetwork.main.ppp[2].ppp 	droppedPkIfaceDown:sum(packetBytes) 	0
attr interpolationmode  none
attr source  dropPkIfaceDown
attr title  "packets dropped/interface down, sum(packetBytes)"
scalar UniversityNetwork.main.ppp[2].ppp 	rxPkOk:count 	284550
attr interpolationmode  none
attr source  rxPkOk
attr title  "packets received OK, count"
scalar UniversityNetwork.main.ppp[2].ppp 	rxPkOk:sum(packetBytes) 	396671312
attr interpolationmode  none
attr source  rxPkOk
attr title  "packets received OK, sum(packetBytes)"
scalar UniversityNetwork.main.ppp[2].ppp 	txState:timeavg 	0.010153538666561
attr interpolationmode  sample-hold
attr title  "tx state, timeavg"
scalar UniversityNetwork.main.ppp[3].inputHook[0] 	duration 	300
scalar UniversityNetwork.main.ppp[3].inputHook[0] 	"total packets" 	7499
scalar UniversityNetwork.main.ppp[3].inputHook[0] 	"total bits" 	85668576
scalar UniversityNetwork.main.ppp[3].inputHook[0] 	"avg throughput (bit/s)" 	285561.92
scalar UniversityNetwork.main.ppp[3].inputHook[0] 	"avg packets/s" 	24.996666666667
statistic UniversityNetwork.main.ppp[3].queue 	queueingTime:histogram
field count 7499
field mean 0
field stddev 0
field sum 0
field sqrsum 0
field min 0
field max 0
attr interpolationmode  none
attr title  "queueing time, histogram"
bin	-INF	0
bin	-0.5	0
bin	-0.46666666666667	0
bin	-0.43333333333333	0
bin	-0.4	0
bin	-0.36666666666667	0
bin	-0.33333333333333	0
bin	-0.3	0
bin	-0.26666666666667	0
bin	-0.23333333333333	0
bin	-0.2	0
bin	-0.16666666666667	0
bin	-0.13333333333333	0
bin	-0.1	0
bin	-0.066666666666667	0
bin	-0.033333333333333	0
bin	0	7499
bin	0.033333333333333	0
bin	0.066666666666667	0
bin	0.1	0
bin	0.13333333333333	0
bin	0.16666666666667	0
bin	0.2	0
bin	0.23333333333333	0
bin	0.26666666666667	0
bin	0.3	0
bin	0.33333333333333	0
bin	0.36666666666667	0
bin	0.4	0
bin	0.43333333333333	0
bin	0.46666666666667	0
bin	0.5	0
scalar UniversityNetwork.main.ppp[3].queue 	dropPk:count 	0
attr interpolationmode  none
attr source  dropPkByQueue
attr title  "dropped packets, count"
scalar UniversityNetwork.main.ppp[3].queue 	dropPk:sum(packetBytes) 	0
attr interpolationmode  none
attr source  dropPkByQueue
attr title  "dropped packets, sum(packetBytes)"
scalar UniversityNetwork.main.ppp[3].queue 	queueLength:max 	0
attr interpolationmode  sample-hold
attr title  "queue length, max"
scalar UniversityNetwork.main.ppp[3].queue 	queueLength:timeavg 	0
attr interpolationmode  sample-hold
attr title  "queue length, timeavg"
scalar UniversityNetwork.main.ppp[3].queue 	rcvdPk:count 	7499
attr interpolationmode  none
attr title  "received packets, count"
scalar UniversityNetwork.main.ppp[3].queue 	rcvdPk:sum(packetBytes) 	10708572
attr interpolationmode  none
attr title  "received packets, sum(packetBytes)"
scalar UniversityNetwork.main.ppp[3].ppp 	rcvdPkFromHL:count 	7499
attr interpolationmode  none
attr source  packetReceivedFromUpper
attr title  "packets received from higher layer, count"
scalar UniversityNetwork.main.ppp[3].ppp 	rcvdPkFromHL:sum(packetBytes) 	10708572
attr interpolationmode  none
attr source  packetReceivedFromUpper
attr title  "packets received from higher layer, sum(packetBytes)"
scalar UniversityNetwork.main.ppp[3].ppp 	passedUpPk:count 	7499
attr interpolationmode  none
attr source  packetSentToUpper
attr title  "packets passed to higher layer, count"
scalar UniversityNetwork.main.ppp[3].ppp 	passedUpPk:sum(packetBytes) 	10708572
attr interpolationmode  none
attr source  packetSentToUpper
attr title  "packets passed to higher layer, sum(packetBytes)"
scalar UniversityNetwork.main.ppp[3].ppp 	txPk:count 	7499
attr interpolationmode  none
attr source  packetSentToLower
attr title  "packets transmitted, count"
scalar UniversityNetwork.main.ppp[3].ppp 	txPk:sum(packetBytes) 	10761065
attr interpolationmode  none
attr source  packetSentToLower
attr title  "packets transmitted, sum(packetBytes)"
scalar UniversityNetwork.main.ppp[3].ppp 	droppedPkBitError:count 	0
attr interpolationmode  none
attr source  dropPkBitError
attr title  "packets dropped/bit error, count"
scalar UniversityNetwork.main.ppp[3].ppp 	droppedPkBitError:sum(packetBytes) 	0
attr interpolationmode  none
attr source  dropPkBitError
attr title  "packets dropped/bit error, sum(packetBytes)"
scalar UniversityNetwork.main.ppp[3].ppp 	droppedPkIfaceDown:count 	0
attr interpolationmode  none
attr source  dropPkIfaceDown
attr title  "packets dropped/interface down, count"
scalar UniversityNetwork.main.ppp[3].ppp 	droppedPkIfaceDown:sum(packetBytes) 	0
attr interpolationmode  none
attr source  dropPkIfaceDown
attr title  "packets dropped/interface down, sum(packetBytes)"
scalar UniversityNetwork.main.ppp[3].ppp 	rxPkOk:count 	7499
attr interpolationmode  none
attr source  rxPkOk
attr title  "packets received OK, count"
scalar UniversityNetwork.main.ppp[3].ppp 	rxPkOk:sum(packetBytes) 	10761065
attr interpolationmode  none
attr source  rxPkOk
attr title  "packets received OK, sum(packetBytes)"
scalar UniversityNetwork.main.ppp[3].ppp 	txState:timeavg 	0.0028696173333332
attr interpolationmode  sample-hold
attr title  "tx state, timeavg"
scalar UniversityNetwork.remote.networkLayer.arp 	initiatedARPResolution:count 	38
attr title  "ARP initiated resolutions, count"
scalar UniversityNetwork.remote.networkLayer.arp 	sentReply:count 	233
attr title  "ARP replies sent, count"
scalar UniversityNetwork.remote.networkLayer.arp 	sentReq:count 	41
attr title  "ARP request sent, count"
scalar UniversityNetwork.remote.networkLayer.arp 	failedARPResolution:count 	0
attr title  "ARP failed resolutions, count"
scalar UniversityNetwork.remote.networkLayer.arp 	completedARPResolution:count 	270
attr title  "ARP completed resolutions, count"
scalar UniversityNetwork.remote.lo0.lo 	rcvdPkFromHL:count 	0
attr interpolationmode  none
attr source  packetReceivedFromUpper
attr title  "packets received from higher layer, count"
scalar UniversityNetwork.remote.lo0.lo 	rcvdPkFromHL:sum(packetBytes) 	0
attr interpolationmode  none
attr source  packetReceivedFromUpper
attr title  "packets received from higher layer, sum(packetBytes)"
scalar UniversityNetwork.remote.lo0.lo 	passedUpPk:count 	0
attr interpolationmode  none
attr source  packetSentToUpper
attr title  "packets passed to higher layer, count"
scalar UniversityNetwork.remote.lo0.lo 	passedUpPk:sum(packetBytes) 	0
attr interpolationmode  none
attr source  packetSentToUpper
attr title  "packets passed to higher layer, sum(packetBytes)"
scalar UniversityNetwork.remote.lo0.lo 	droppedPkBitError:count 	0
attr interpolationmode  none
attr source  dropPkBitError
attr title  "packets dropped/bit error, count"
scalar UniversityNetwork.remote.lo0.lo 	droppedPkBitError:sum(packetBytes) 	0
attr interpolationmode  none
attr source  dropPkBitError
attr title  "packets dropped/bit error, sum(packetBytes)"
scalar UniversityNetwork.remote.eth[0].mac 	"simulated time" 	300
scalar UniversityNetwork.remote.eth[0].mac 	full-duplex 	1
scalar UniversityNetwork.remote.eth[0].mac 	"frames/sec sent" 	959.49666666667
scalar UniversityNetwork.remote.eth[0].mac 	"frames/sec rcvd" 	935.96
scalar UniversityNetwork.remote.eth[0].mac 	"bits/sec sent" 	10774958.586667
scalar UniversityNetwork.remote.eth[0].mac 	"bits/sec rcvd" 	1413750.4
scalar UniversityNetwork.remote.eth[0].mac 	"rx channel idle (%)" 	98.52634816
scalar UniversityNetwork.remote.eth[0].mac 	"rx channel utilization (%)" 	1.47365184
scalar UniversityNetwork.remote.eth[0].mac 	rxPkFromHL:count 	287849
attr interpolationmode  none
attr source  rxPkFromHL
attr title  "packet bytes from higher layer, count"
scalar UniversityNetwork.remote.eth[0].mac 	rxPkFromHL:sum(packetBytes) 	404060947
attr interpolationmode  none
attr source  rxPkFromHL
attr title  "packet bytes from higher layer, sum(packetBytes)"
scalar UniversityNetwork.remote.eth[0].mac 	rxPausePkUnits:count 	0
attr interpolationmode  none
attr title  "pause units received, count"
scalar UniversityNetwork.remote.eth[0].mac 	rxPausePkUnits:sum 	0
attr interpolationmode  none
attr title  "pause units received, sum"
scalar UniversityNetwork.remote.eth[0].mac 	txPausePkUnits:count 	0
attr interpolationmode  none
attr title  "pause units sent, count"
scalar UniversityNetwork.remote.eth[0].mac 	txPausePkUnits:sum 	0
attr interpolationmode  none
attr title  "pause units sent, sum"
scalar UniversityNetwork.remote.eth[0].mac 	txPk:count 	287849
attr interpolationmode  none
attr source  txPk
attr title  "packets transmitted, count"
scalar UniversityNetwork.remote.eth[0].mac 	txPk:sum(packetBytes) 	404060947
attr interpolationmode  none
attr source  txPk
attr title  "packets transmitted, sum(packetBytes)"
scalar UniversityNetwork.remote.eth[0].mac 	droppedPkNotForUs:count 	0
attr interpolationmode  none
attr source  dropPkNotForUs
attr title  "packets dropped/not for us, count"
scalar UniversityNetwork.remote.eth[0].mac 	droppedPkNotForUs:sum(packetBytes) 	0
attr interpolationmode  none
attr source  dropPkNotForUs
attr title  "packets dropped/not for us, sum(packetBytes)"
scalar UniversityNetwork.remote.eth[0].mac 	passedUpPk:count 	280788
attr interpolationmode  none
attr source  packetSentToUpper
attr title  "packets passed to higher layer, count"
scalar UniversityNetwork.remote.eth[0].mac 	passedUpPk:sum(packetBytes) 	53015640
attr interpolationmode  none
attr source  packetSentToUpper
attr title  "packets passed to higher layer, sum(packetBytes)"
scalar UniversityNetwork.remote.eth[0].mac 	droppedPkBitError:count 	0
attr interpolationmode  none
attr source  dropPkBitError
attr title  "packets dropped/bit error, count"
scalar UniversityNetwork.remote.eth[0].mac 	droppedPkBitError:sum(packetBytes) 	0
attr interpolationmode  none
attr source  dropPkBitError
attr title  "packets dropped/bit error, sum(packetBytes)"
scalar UniversityNetwork.remote.eth[0].mac 	droppedPkIfaceDown:count 	0
attr interpolationmode  none
attr source  dropPkIfaceDown
attr title  "packets dropped/interface down, count"
scalar UniversityNetwork.remote.eth[0].mac 	droppedPkIfaceDown:sum(packetBytes) 	0
attr interpolationmode  none
attr source  dropPkIfaceDown
attr title  "packets dropped/interface down, sum(packetBytes)"
scalar UniversityNetwork.remote.eth[0].mac 	rxPkOk:count 	280788
attr interpolationmode  none
attr source  rxPkOk
attr title  "packets received OK, count"
scalar UniversityNetwork.remote.eth[0].mac 	rxPkOk:sum(packetBytes) 	53015640
attr interpolationmode  none
attr source  rxPkOk
attr title  "packets received OK, sum(packetBytes)"
scalar UniversityNetwork.remote.eth[0].encap 	pauseSent:count 	0
attr title  "pause sent, count"
scalar UniversityNetwork.remote.eth[0].encap 	pauseSent:sum 	0
attr title  "pause sent, sum"
scalar UniversityNetwork.remote.eth[0].encap 	decapPk:count 	280788
attr interpolationmode  none
attr source  decapPk
attr title  "packets decapsulated, count"
scalar UniversityNetwork.remote.eth[0].encap 	decapPk:sum(packetBytes) 	46881192
attr interpolationmode  none
attr source  decapPk
attr title  "packets decapsulated, sum(packetBytes)"
scalar UniversityNetwork.remote.eth[0].encap 	encapPk:count 	287849
attr interpolationmode  none
attr source  encapPk
attr title  "packets encapsulated, count"
scalar UniversityNetwork.remote.eth[0].encap 	encapPk:sum(packetBytes) 	398760325
attr interpolationmode  none
attr source  encapPk
attr title  "packets encapsulated, sum(packetBytes)"
scalar UniversityNetwork.remote.ppp[0].inputHook[0] 	duration 	300
scalar UniversityNetwork.remote.ppp[0].inputHook[0] 	"total packets" 	287575
scalar UniversityNetwork.remote.ppp[0].inputHook[0] 	"total bits" 	3190021224
scalar UniversityNetwork.remote.ppp[0].inputHook[0] 	"avg throughput (bit/s)" 	10633404.08
scalar UniversityNetwork.remote.ppp[0].inputHook[0] 	"avg packets/s" 	958.58333333333
statistic UniversityNetwork.remote.ppp[0].queue 	queueingTime:histogram
field count 280518
field mean 3.1119157761531e-05
field stddev 0.00021034332793129
field sum 8.7294838969491
field sqrsum 0.012682936867193
field min 0
field max 0.013599923067
attr interpolationmode  none
attr title  "queueing time, histogram"
bin	-INF	0
bin	-0.001170340245	0
bin	-0.001014294879	0
bin	-0.000858249513	0
bin	-0.000702204147	0
bin	-0.000546158781	0
bin	-0.000390113415	0
bin	-0.000234068049	0
bin	-7.8022683e-05	266092
bin	7.8022683e-05	3890
bin	0.000234068049	2423
bin	0.000390113415	2853
bin	0.000546158781	1335
bin	0.000702204147	1728
bin	0.000858249513	453
bin	0.001014294879	438
bin	0.001170340245	331
bin	0.001326385611	135
bin	0.001482430977	217
bin	0.001638476343	89
bin	0.001794521709	95
bin	0.001950567075	64
bin	0.002106612441	43
bin	0.002262657807	58
bin	0.002418703173	24
bin	0.002574748539	47
bin	0.002730793905	21
bin	0.002886839271	21
bin	0.003042884637	18
bin	0.003198930003	11
bin	0.003354975369	20
bin	0.003511020735	112
scalar UniversityNetwork.remote.ppp[0].queue 	dropPk:count 	0
attr interpolationmode  none
attr source  dropPkByQueue
attr title  "dropped packets, count"
scalar UniversityNetwork.remote.ppp[0].queue 	dropPk:sum(packetBytes) 	0
attr interpolationmode  none
attr source  dropPkByQueue
attr title  "dropped packets, sum(packetBytes)"
scalar UniversityNetwork.remote.ppp[0].queue 	queueLength:max 	14
attr interpolationmode  sample-hold
attr title  "queue length, max"
scalar UniversityNetwork.remote.ppp[0].queue 	queueLength:timeavg 	0.029098279656497
attr interpolationmode  sample-hold
attr title  "queue length, timeavg"
scalar UniversityNetwork.remote.ppp[0].queue 	rcvdPk:count 	280518
attr interpolationmode  none
attr title  "received packets, count"
scalar UniversityNetwork.remote.ppp[0].queue 	rcvdPk:sum(packetBytes) 	46873632
attr interpolationmode  none
attr title  "received packets, sum(packetBytes)"
scalar UniversityNetwork.remote.ppp[0].ppp 	rcvdPkFromHL:count 	280518
attr interpolationmode  none
attr source  packetReceivedFromUpper
attr title  "packets received from higher layer, count"
scalar UniversityNetwork.remote.ppp[0].ppp 	rcvdPkFromHL:sum(packetBytes) 	46873632
attr interpolationmode  none
attr source  packetReceivedFromUpper
attr title  "packets received from higher layer, sum(packetBytes)"
scalar UniversityNetwork.remote.ppp[0].ppp 	passedUpPk:count 	287575
attr interpolationmode  none
attr source  packetSentToUpper
attr title  "packets passed to higher layer, count"
scalar UniversityNetwork.remote.ppp[0].ppp 	passedUpPk:sum(packetBytes) 	398752653
attr interpolationmode  none
attr source  packetSentToUpper
attr title  "packets passed to higher layer, sum(packetBytes)"
scalar UniversityNetwork.remote.ppp[0].ppp 	txPk:count 	280518
attr interpolationmode  none
attr source  packetSentToLower
attr title  "packets transmitted, count"
scalar UniversityNetwork.remote.ppp[0].ppp 	txPk:sum(packetBytes) 	48837258
attr interpolationmode  none
attr source  packetSentToLower
attr title  "packets transmitted, sum(packetBytes)"
scalar UniversityNetwork.remote.ppp[0].ppp 	droppedPkBitError:count 	0
attr interpolationmode  none
attr source  dropPkBitError
attr title  "packets dropped/bit error, count"
scalar UniversityNetwork.remote.ppp[0].ppp 	droppedPkBitError:sum(packetBytes) 	0
attr interpolationmode  none
attr source  dropPkBitError
attr title  "packets dropped/bit error, sum(packetBytes)"
scalar UniversityNetwork.remote.ppp[0].ppp 	droppedPkIfaceDown:count 	0
attr interpolationmode  none
attr source  dropPkIfaceDown
attr title  "packets dropped/interface down, count"
scalar UniversityNetwork.remote.ppp[0].ppp 	droppedPkIfaceDown:sum(packetBytes) 	0
attr interpolationmode  none
attr source  dropPkIfaceDown
attr title  "packets dropped/interface down, sum(packetBytes)"
scalar UniversityNetwork.remote.ppp[0].ppp 	rxPkOk:count 	287575
attr interpolationmode  none
attr source  rxPkOk
attr title  "packets received OK, count"
scalar UniversityNetwork.remote.ppp[0].ppp 	rxPkOk:sum(packetBytes) 	400765678
attr interpolationmode  none
attr source  rxPkOk
attr title  "packets received OK, sum(packetBytes)"
scalar UniversityNetwork.remote.ppp[0].ppp 	txState:timeavg 	0.1085272396593
attr interpolationmode  sample-hold
attr title  "tx state, timeavg"
scalar UniversityNetwork.remote.ppp[1].inputHook[0] 	duration 	300
scalar UniversityNetwork.remote.ppp[1].inputHook[0] 	"total packets" 	0
scalar UniversityNetwork.remote.ppp[1].inputHook[0] 	"total bits" 	0
scalar UniversityNetwork.remote.ppp[1].inputHook[0] 	"avg throughput (bit/s)" 	0
scalar UniversityNetwork.remote.ppp[1].inputHook[0] 	"avg packets/s" 	0
statistic UniversityNetwork.remote.ppp[1].queue 	queueingTime:histogram
field count 0
field mean -nan
field stddev -nan
field sum 0
field sqrsum 0
field min -nan
field max -nan
attr interpolationmode  none
attr title  "queueing time, histogram"
bin	-INF	0
bin	-0.5	0
bin	-0.46666666666667	0
bin	-0.43333333333333	0
bin	-0.4	0
bin	-0.36666666666667	0
bin	-0.33333333333333	0
bin	-0.3	0
bin	-0.26666666666667	0
bin	-0.23333333333333	0
bin	-0.2	0
bin	-0.16666666666667	0
bin	-0.13333333333333	0
bin	-0.1	0
bin	-0.066666666666667	0
bin	-0.033333333333333	0
bin	0	0
bin	0.033333333333333	0
bin	0.066666666666667	0
bin	0.1	0
bin	0.13333333333333	0
bin	0.16666666666667	0
bin	0.2	0
bin	0.23333333333333	0
bin	0.26666666666667	0
bin	0.3	0
bin	0.33333333333333	0
bin	0.36666666666667	0
bin	0.4	0
bin	0.43333333333333	0
bin	0.46666666666667	0
bin	0.5	0
scalar UniversityNetwork.remote.ppp[1].queue 	dropPk:count 	0
attr interpolationmode  none
attr source  dropPkByQueue
attr title  "dropped packets, count"
scalar UniversityNetwork.remote.ppp[1].queue 	dropPk:sum(packetBytes) 	0
attr interpolationmode  none
attr source  dropPkByQueue
attr title  "dropped packets, sum(packetBytes)"
scalar UniversityNetwork.remote.ppp[1].queue 	queueLength:max 	0
attr interpolationmode  sample-hold
attr title  "queue length, max"
scalar UniversityNetwork.remote.ppp[1].queue 	queueLength:timeavg 	0
attr interpolationmode  sample-hold
attr title  "queue length, timeavg"
scalar UniversityNetwork.remote.ppp[1].queue 	rcvdPk:count 	0
attr interpolationmode  none
attr title  "received packets, count"
scalar UniversityNetwork.remote.ppp[1].queue 	rcvdPk:sum(packetBytes) 	0
attr interpolationmode  none
attr title  "received packets, sum(packetBytes)"
scalar UniversityNetwork.remote.ppp[1].ppp 	rcvdPkFromHL:count 	0
attr interpolationmode  none
attr source  packetReceivedFromUpper
attr title  "packets received from higher layer, count"
scalar UniversityNetwork.remote.ppp[1].ppp 	rcvdPkFromHL:sum(packetBytes) 	0
attr interpolationmode  none
attr source  packetReceivedFromUpper
attr title  "packets received from higher layer, sum(packetBytes)"
scalar UniversityNetwork.remote.ppp[1].ppp 	passedUpPk:count 	0
attr interpolationmode  none
attr source  packetSentToUpper
attr title  "packets passed to higher layer, count"
scalar UniversityNetwork.remote.ppp[1].ppp 	passedUpPk:sum(packetBytes) 	0
attr interpolationmode  none
attr source  packetSentToUpper
attr title  "packets passed to higher layer, sum(packetBytes)"
scalar UniversityNetwork.remote.ppp[1].ppp 	txPk:count 	0
attr interpolationmode  none
attr source  packetSentToLower
attr title  "packets transmitted, count"
scalar UniversityNetwork.remote.ppp[1].ppp 	txPk:sum(packetBytes) 	0
attr interpolationmode  none
attr source  packetSentToLower
attr title  "packets transmitted, sum(packetBytes)"
scalar UniversityNetwork.remote.ppp[1].ppp 	droppedPkBitError:count 	0
attr interpolationmode  none
attr source  dropPkBitError
attr title  "packets dropped/bit error, count"
scalar UniversityNetwork.remote.ppp[1].ppp 	droppedPkBitError:sum(packetBytes) 	0
attr interpolationmode  none
attr source  dropPkBitError
attr title  "packets dropped/bit error, sum(packetBytes)"
scalar UniversityNetwork.remote.ppp[1].ppp 	droppedPkIfaceDown:count 	0
attr interpolationmode  none
attr source  dropPkIfaceDown
attr title  "packets dropped/interface down, count"
scalar UniversityNetwork.remote.ppp[1].ppp 	droppedPkIfaceDown:sum(packetBytes) 	0
attr interpolationmode  none
attr source  dropPkIfaceDown
attr title  "packets dropped/interface down, sum(packetBytes)"
scalar UniversityNetwork.remote.ppp[1].ppp 	rxPkOk:count 	0
attr interpolationmode  none
attr source  rxPkOk
attr title  "packets received OK, count"
scalar UniversityNetwork.remote.ppp[1].ppp 	rxPkOk:sum(packetBytes) 	0
attr interpolationmode  none
attr source  rxPkOk
attr title  "packets received OK, sum(packetBytes)"
scalar UniversityNetwork.remote.ppp[1].ppp 	txState:timeavg 	0
attr interpolationmode  sample-hold
attr title  "tx state, timeavg"
scalar UniversityNetwork.Internet.networkLayer.arp 	initiatedARPResolution:count 	0
attr title  "ARP initiated resolutions, count"
scalar UniversityNetwork.Internet.networkLayer.arp 	sentReply:count 	0
attr title  "ARP replies sent, count"
scalar UniversityNetwork.Internet.networkLayer.arp 	sentReq:count 	0
attr title  "ARP request sent, count"
scalar UniversityNetwork.Internet.networkLayer.arp 	failedARPResolution:count 	0
attr title  "ARP failed resolutions, count"
scalar UniversityNetwork.Internet.networkLayer.arp 	completedARPResolution:count 	0
attr title  "ARP completed resolutions, count"
scalar UniversityNetwork.Internet.lo0.lo 	rcvdPkFromHL:count 	0
attr interpolationmode  none
attr source  packetReceivedFromUpper
attr title  "packets received from higher layer, count"
scalar UniversityNetwork.Internet.lo0.lo 	rcvdPkFromHL:sum(packetBytes) 	0
attr interpolationmode  none
attr source  packetReceivedFromUpper
attr title  "packets received from higher layer, sum(packetBytes)"
scalar UniversityNetwork.Internet.lo0.lo 	passedUpPk:count 	0
attr interpolationmode  none
attr source  packetSentToUpper
attr title  "packets passed to higher layer, count"
scalar UniversityNetwork.Internet.lo0.lo 	passedUpPk:sum(packetBytes) 	0
attr interpolationmode  none
attr source  packetSentToUpper
attr title  "packets passed to higher layer, sum(packetBytes)"
scalar UniversityNetwork.Internet.lo0.lo 	droppedPkBitError:count 	0
attr interpolationmode  none
attr source  dropPkBitError
attr title  "packets dropped/bit error, count"
scalar UniversityNetwork.Internet.lo0.lo 	droppedPkBitError:sum(packetBytes) 	0
attr interpolationmode  none
attr source  dropPkBitError
attr title  "packets dropped/bit error, sum(packetBytes)"
scalar UniversityNetwork.Internet.ppp[0].inputHook[0] 	duration 	300
scalar UniversityNetwork.Internet.ppp[0].inputHook[0] 	"total packets" 	273000
scalar UniversityNetwork.Internet.ppp[0].inputHook[0] 	"total bits" 	289314400
scalar UniversityNetwork.Internet.ppp[0].inputHook[0] 	"avg throughput (bit/s)" 	964381.33333333
scalar UniversityNetwork.Internet.ppp[0].inputHook[0] 	"avg packets/s" 	910
statistic UniversityNetwork.Internet.ppp[0].queue 	queueingTime:histogram
field count 284557
field mean 4.2970850908451e-05
field stddev 0.00024679908876425
field sum 12.227656421956
field sqrsum 0.017857679065448
field min 0
field max 0.0048224
attr interpolationmode  none
attr title  "queueing time, histogram"
bin	-INF	0
bin	-6.028e-05	0
bin	-5.2242666666667e-05	0
bin	-4.4205333333333e-05	0
bin	-3.6168e-05	0
bin	-2.8130666666667e-05	0
bin	-2.0093333333333e-05	0
bin	-1.2056e-05	0
bin	-4.0186666666667e-06	226431
bin	4.0186666666667e-06	31
bin	1.2056e-05	24
bin	2.0093333333333e-05	24
bin	2.8130666666667e-05	29
bin	3.6168e-05	22
bin	4.4205333333333e-05	38
bin	5.2242666666667e-05	32
bin	6.028e-05	33
bin	6.8317333333333e-05	28
bin	7.6354666666667e-05	24
bin	8.4392e-05	94
bin	9.2429333333333e-05	10
bin	0.00010046666666667	22
bin	0.000108504	33
bin	0.00011654133333333	54310
bin	0.00012457866666667	12
bin	0.000132616	3
bin	0.00014065333333333	10
bin	0.00014869066666667	10
bin	0.000156728	13
bin	0.00016476533333333	14
bin	0.00017280266666667	8
bin	0.00018084	3302
scalar UniversityNetwork.Internet.ppp[0].queue 	dropPk:count 	18578
attr interpolationmode  none
attr source  dropPkByQueue
attr title  "dropped packets, count"
scalar UniversityNetwork.Internet.ppp[0].queue 	dropPk:sum(packetBytes) 	27832417
attr interpolationmode  none
attr source  dropPkByQueue
attr title  "dropped packets, sum(packetBytes)"
scalar UniversityNetwork.Internet.ppp[0].queue 	queueLength:max 	40
attr interpolationmode  sample-hold
attr title  "queue length, max"
scalar UniversityNetwork.Internet.ppp[0].queue 	queueLength:timeavg 	0.040758854739854
attr interpolationmode  sample-hold
attr title  "queue length, timeavg"
scalar UniversityNetwork.Internet.ppp[0].queue 	rcvdPk:count 	303135
attr interpolationmode  none
attr title  "received packets, count"
scalar UniversityNetwork.Internet.ppp[0].queue 	rcvdPk:sum(packetBytes) 	422522379
attr interpolationmode  none
attr title  "received packets, sum(packetBytes)"
scalar UniversityNetwork.Internet.ppp[0].ppp 	rcvdPkFromHL:count 	284557
attr interpolationmode  none
attr source  packetReceivedFromUpper
attr title  "packets received from higher layer, count"
scalar UniversityNetwork.Internet.ppp[0].ppp 	rcvdPkFromHL:sum(packetBytes) 	394689962
attr interpolationmode  none
attr source  packetReceivedFromUpper
attr title  "packets received from higher layer, sum(packetBytes)"
scalar UniversityNetwork.Internet.ppp[0].ppp 	passedUpPk:count 	273000
attr interpolationmode  none
attr source  packetSentToUpper
attr title  "packets passed to higher layer, count"
scalar UniversityNetwork.Internet.ppp[0].ppp 	passedUpPk:sum(packetBytes) 	36164300
attr interpolationmode  none
attr source  packetSentToUpper
attr title  "packets passed to higher layer, sum(packetBytes)"
scalar UniversityNetwork.Internet.ppp[0].ppp 	txPk:count 	284557
attr interpolationmode  none
attr source  packetSentToLower
attr title  "packets transmitted, count"
scalar UniversityNetwork.Internet.ppp[0].ppp 	txPk:sum(packetBytes) 	396681861
attr interpolationmode  none
attr source  packetSentToLower
attr title  "packets transmitted, sum(packetBytes)"
scalar UniversityNetwork.Internet.ppp[0].ppp 	droppedPkBitError:count 	0
attr interpolationmode  none
attr source  dropPkBitError
attr title  "packets dropped/bit error, count"
scalar UniversityNetwork.Internet.ppp[0].ppp 	droppedPkBitError:sum(packetBytes) 	0
attr interpolationmode  none
attr source  dropPkBitError
attr title  "packets dropped/bit error, sum(packetBytes)"
scalar UniversityNetwork.Internet.ppp[0].ppp 	droppedPkIfaceDown:count 	0
attr interpolationmode  none
attr source  dropPkIfaceDown
attr title  "packets dropped/interface down, count"
scalar UniversityNetwork.Internet.ppp[0].ppp 	droppedPkIfaceDown:sum(packetBytes) 	0
attr interpolationmode  none
attr source  dropPkIfaceDown
attr title  "packets dropped/interface down, sum(packetBytes)"
scalar UniversityNetwork.Internet.ppp[0].ppp 	rxPkOk:count 	273000
attr interpolationmode  none
attr source  rxPkOk
attr title  "packets received OK, count"
scalar UniversityNetwork.Internet.ppp[0].ppp 	rxPkOk:sum(packetBytes) 	38075300
attr interpolationmode  none
attr source  rxPkOk
attr title  "packets received OK, sum(packetBytes)"
scalar UniversityNetwork.Internet.ppp[0].ppp 	txState:timeavg 	0.10578182959914
attr interpolationmode  sample-hold
attr title  "tx state, timeavg"
scalar UniversityNetwork.Internet.tcpApp[0] 	sentPk:count 	563
attr interpolationmode  none
attr source  sentPk
attr title  "packets sent, count"
scalar UniversityNetwork.Internet.tcpApp[0] 	sentPk:sum(packetBytes) 	354113648
attr interpolationmode  none
attr source  sentPk
attr title  "packets sent, sum(packetBytes)"
scalar UniversityNetwork.Internet.tcpApp[0] 	rcvdPk:count 	563
attr interpolationmode  none
attr source  rcvdPk
attr title  "packets received, count"
scalar UniversityNetwork.Internet.tcpApp[0] 	rcvdPk:sum(packetBytes) 	422250
attr interpolationmode  none
attr source  rcvdPk
attr title  "packets received, sum(packetBytes)"
statistic UniversityNetwork.Internet.tcpApp[0] 	endToEndDelay:histogram
field count 563
field mean 0.024743771642295
field stddev 0.0031257366933076
field sum 13.930743434612
field sqrsum 0.35019000354369
field min 0.023399978527
field max 0.0691611645
attr interpolationmode  none
attr source  messageAge(rcvdPk)
attr title  "end-to-end delay, histogram"
attr unit  s
bin	-INF	0
bin	0.0050119047835	0
bin	0.0074636484369	0
bin	0.0099153920903	0
bin	0.0123671357437	0
bin	0.0148188793971	0
bin	0.0172706230505	0
bin	0.0197223667039	0
bin	0.0221741103573	375
bin	0.0246258540107	153
bin	0.0270775976641	20
bin	0.0295293413175	7
bin	0.0319810849709	1
bin	0.0344328286243	1
bin	0.0368845722777	1
bin	0.0393363159311	2
bin	0.0417880595845	1
bin	0.0442398032379	0
bin	0.0466915468913	0
bin	0.0491432905447	0
bin	0.0515950341981	0
bin	0.0540467778515	0
bin	0.0564985215049	0
bin	0.0589502651583	1
bin	0.0614020088117	0
bin	0.0638537524651	0
bin	0.0663054961185	0
bin	0.0687572397719	1
bin	0.0712089834253	0
bin	0.0736607270787	0
bin	0.0761124707321	0
bin	0.0785642143855	0
scalar UniversityNetwork.Professor.networkLayer.arp 	initiatedARPResolution:count 	0
attr title  "ARP initiated resolutions, count"
scalar UniversityNetwork.Professor.networkLayer.arp 	sentReply:count 	0
attr title  "ARP replies sent, count"
scalar UniversityNetwork.Professor.networkLayer.arp 	sentReq:count 	0
attr title  "ARP request sent, count"
scalar UniversityNetwork.Professor.networkLayer.arp 	failedARPResolution:count 	0
attr title  "ARP failed resolutions, count"
scalar UniversityNetwork.Professor.networkLayer.arp 	completedARPResolution:count 	0
attr title  "ARP completed resolutions, count"
scalar UniversityNetwork.Professor.lo0.lo 	rcvdPkFromHL:count 	0
attr interpolationmode  none
attr source  packetReceivedFromUpper
attr title  "packets received from higher layer, count"
scalar UniversityNetwork.Professor.lo0.lo 	rcvdPkFromHL:sum(packetBytes) 	0
attr interpolationmode  none
attr source  packetReceivedFromUpper
attr title  "packets received from higher layer, sum(packetBytes)"
scalar UniversityNetwork.Professor.lo0.lo 	passedUpPk:count 	0
attr interpolationmode  none
attr source  packetSentToUpper
attr title  "packets passed to higher layer, count"
scalar UniversityNetwork.Professor.lo0.lo 	passedUpPk:sum(packetBytes) 	0
attr interpolationmode  none
attr source  packetSentToUpper
attr title  "packets passed to higher layer, sum(packetBytes)"
scalar UniversityNetwork.Professor.lo0.lo 	droppedPkBitError:count 	0
attr interpolationmode  none
attr source  dropPkBitError
attr title  "packets dropped/bit error, count"
scalar UniversityNetwork.Professor.lo0.lo 	droppedPkBitError:sum(packetBytes) 	0
attr interpolationmode  none
attr source  dropPkBitError
attr title  "packets dropped/bit error, sum(packetBytes)"
scalar UniversityNetwork.Professor.ppp[0].inputHook[0] 	duration 	300
scalar UniversityNetwork.Professor.ppp[0].inputHook[0] 	"total packets" 	7499
scalar UniversityNetwork.Professor.ppp[0].inputHook[0] 	"total bits" 	85668576
scalar UniversityNetwork.Professor.ppp[0].inputHook[0] 	"avg throughput (bit/s)" 	285561.92
scalar UniversityNetwork.Professor.ppp[0].inputHook[0] 	"avg packets/s" 	24.996666666667
statistic UniversityNetwork.Professor.ppp[0].queue 	queueingTime:histogram
field count 7499
field mean 0
field stddev 0
field sum 0
field sqrsum 0
field min 0
field max 0
attr interpolationmode  none
attr title  "queueing time, histogram"
bin	-INF	0
bin	-0.5	0
bin	-0.46666666666667	0
bin	-0.43333333333333	0
bin	-0.4	0
bin	-0.36666666666667	0
bin	-0.33333333333333	0
bin	-0.3	0
bin	-0.26666666666667	0
bin	-0.23333333333333	0
bin	-0.2	0
bin	-0.16666666666667	0
bin	-0.13333333333333	0
bin	-0.1	0
bin	-0.066666666666667	0
bin	-0.033333333333333	0
bin	0	7499
bin	0.033333333333333	0
bin	0.066666666666667	0
bin	0.1	0
bin	0.13333333333333	0
bin	0.16666666666667	0
bin	0.2	0
bin	0.23333333333333	0
bin	0.26666666666667	0
bin	0.3	0
bin	0.33333333333333	0
bin	0.36666666666667	0
bin	0.4	0
bin	0.43333333333333	0
bin	0.46666666666667	0
bin	0.5	0
scalar UniversityNetwork.Professor.ppp[0].queue 	dropPk:count 	0
attr interpolationmode  none
attr source  dropPkByQueue
attr title  "dropped packets, count"
scalar UniversityNetwork.Professor.ppp[0].queue 	dropPk:sum(packetBytes) 	0
attr interpolationmode  none
attr source  dropPkByQueue
attr title  "dropped packets, sum(packetBytes)"
scalar UniversityNetwork.Professor.ppp[0].queue 	queueLength:max 	0
attr interpolationmode  sample-hold
attr title  "queue length, max"
scalar UniversityNetwork.Professor.ppp[0].queue 	queueLength:timeavg 	0
attr interpolationmode  sample-hold
attr title  "queue length, timeavg"
scalar UniversityNetwork.Professor.ppp[0].queue 	rcvdPk:count 	7499
attr interpolationmode  none
attr title  "received packets, count"
scalar UniversityNetwork.Professor.ppp[0].queue 	rcvdPk:sum(packetBytes) 	10708572
attr interpolationmode  none
attr title  "received packets, sum(packetBytes)"
scalar UniversityNetwork.Professor.ppp[0].ppp 	rcvdPkFromHL:count 	7499
attr interpolationmode  none
attr source  packetReceivedFromUpper
attr title  "packets received from higher layer, count"
scalar UniversityNetwork.Professor.ppp[0].ppp 	rcvdPkFromHL:sum(packetBytes) 	10708572
attr interpolationmode  none
attr source  packetReceivedFromUpper
attr title  "packets received from higher layer, sum(packetBytes)"
scalar UniversityNetwork.Professor.ppp[0].ppp 	passedUpPk:count 	7499
attr interpolationmode  none
attr source  packetSentToUpper
attr title  "packets passed to higher layer, count"
scalar UniversityNetwork.Professor.ppp[0].ppp 	passedUpPk:sum(packetBytes) 	10708572
attr interpolationmode  none
attr source  packetSentToUpper
attr title  "packets passed to higher layer, sum(packetBytes)"
scalar UniversityNetwork.Professor.ppp[0].ppp 	txPk:count 	7499
attr interpolationmode  none
attr source  packetSentToLower
attr title  "packets transmitted, count"
scalar UniversityNetwork.Professor.ppp[0].ppp 	txPk:sum(packetBytes) 	10761065
attr interpolationmode  none
attr source  packetSentToLower
attr title  "packets transmitted, sum(packetBytes)"
scalar UniversityNetwork.Professor.ppp[0].ppp 	droppedPkBitError:count 	0
attr interpolationmode  none
attr source  dropPkBitError
attr title  "packets dropped/bit error, count"
scalar UniversityNetwork.Professor.ppp[0].ppp 	droppedPkBitError:sum(packetBytes) 	0
attr interpolationmode  none
attr source  dropPkBitError
attr title  "packets dropped/bit error, sum(packetBytes)"
scalar UniversityNetwork.Professor.ppp[0].ppp 	droppedPkIfaceDown:count 	0
attr interpolationmode  none
attr source  dropPkIfaceDown
attr title  "packets dropped/interface down, count"
scalar UniversityNetwork.Professor.ppp[0].ppp 	droppedPkIfaceDown:sum(packetBytes) 	0
attr interpolationmode  none
attr source  dropPkIfaceDown
attr title  "packets dropped/interface down, sum(packetBytes)"
scalar UniversityNetwork.Professor.ppp[0].ppp 	rxPkOk:count 	7499
attr interpolationmode  none
attr source  rxPkOk
attr title  "packets received OK, count"
scalar UniversityNetwork.Professor.ppp[0].ppp 	rxPkOk:sum(packetBytes) 	10761065
attr interpolationmode  none
attr source  rxPkOk
attr title  "packets received OK, sum(packetBytes)"
scalar UniversityNetwork.Professor.ppp[0].ppp 	txState:timeavg 	0.0028696173333332
attr interpolationmode  sample-hold
attr title  "tx state, timeavg"
scalar UniversityNetwork.Professor.udpApp[0] 	#droppedBecauseLate 	25
scalar UniversityNetwork.Professor.udpApp[0] 	avgDuration 	0.020054089667996
scalar UniversityNetwork.Professor.udpApp[0] 	"error rate" 	0.0033337778370449
scalar UniversityNetwork.Professor.udpApp[0] 	"packets sent" 	7500
scalar UniversityNetwork.Professor.udpApp[0] 	"packets received" 	7499
scalar UniversityNetwork.Professor.udpApp[0] 	sentPk:count 	7500
attr interpolationmode  none
attr source  sentPk
attr title  "packets sent, count"
scalar UniversityNetwork.Professor.udpApp[0] 	sentPk:sum(packetBytes) 	10500000
attr interpolationmode  none
attr source  sentPk
attr title  "packets sent, sum(packetBytes)"
scalar UniversityNetwork.Professor.udpApp[0] 	rcvdPk:count 	7499
attr interpolationmode  none
attr source  rcvdPk
attr title  "packets received, count"
scalar UniversityNetwork.Professor.udpApp[0] 	rcvdPk:sum(packetBytes) 	10498600
attr interpolationmode  none
attr source  rcvdPk
attr title  "packets received, sum(packetBytes)"
statistic UniversityNetwork.Professor.udpApp[0] 	rcvdPkLifetime:stats
field count 7499
field mean 0.020054089667956
field stddev 0.03695980594094
field sum 150.38561842
field sqrsum 13.258319035995
field min 0.016460396666
field max 1.058317957161
attr interpolationmode  none
attr source  messageAge(rcvdPk)
attr title  "received packet lifetime, stats"
attr unit  s
scalar UniversityNetwork.Professor.udp 	droppedPkBadChecksum:count 	0
attr interpolationmode  none
attr title  "packets dropped (checksum error), count"
scalar UniversityNetwork.Professor.udp 	droppedPkWrongPort:count 	0
attr interpolationmode  none
attr title  "packets dropped (wrong port), count"
scalar UniversityNetwork.Professor.udp 	passedUpPk:count 	7499
attr interpolationmode  none
attr title  "packets passed up, count"
scalar UniversityNetwork.Professor.udp 	sentPk:count 	7499
attr interpolationmode  none
attr source  sentPk
attr title  "packets sent, count"
scalar UniversityNetwork.Professor.udp 	sentPk:sum(packetBytes) 	10558592
attr interpolationmode  none
attr source  sentPk
attr title  "packets sent, sum(packetBytes)"
scalar UniversityNetwork.Professor.udp 	rcvdPk:count 	7499
attr interpolationmode  none
attr source  rcvdPk
attr title  "packets received, count"
scalar UniversityNetwork.Professor.udp 	rcvdPk:sum(packetBytes) 	10558592
attr interpolationmode  none
attr source  rcvdPk
attr title  "packets received, sum(packetBytes)"
scalar UniversityNetwork.accessPoint.relayUnit 	"number of received BPDUs from STP module" 	0
scalar UniversityNetwork.accessPoint.relayUnit 	"number of received frames from network (including BPDUs)" 	568637
scalar UniversityNetwork.accessPoint.relayUnit 	"number of dropped frames (including BPDUs)" 	0
scalar UniversityNetwork.accessPoint.relayUnit 	"number of delivered BPDUs to the STP module" 	0
scalar UniversityNetwork.accessPoint.relayUnit 	"number of dispatched BPDU frames to the network" 	0
scalar UniversityNetwork.accessPoint.relayUnit 	"number of dispatched non-BDPU frames to the network" 	568637
scalar UniversityNetwork.accessPoint.wlan[0].mgmt 	dropPkByQueue:count 	11807
attr interpolationmode  none
attr source  dropPkByQueue
attr title  "packets dropped by queue, count"
scalar UniversityNetwork.accessPoint.wlan[0].mgmt 	dropPkByQueue:sum(packetBytes) 	11404367
attr interpolationmode  none
attr source  dropPkByQueue
attr title  "packets dropped by queue, sum(packetBytes)"
scalar UniversityNetwork.accessPoint.wlan[0].mgmt 	dataQueueLen:max 	50
attr interpolationmode  sample-hold
attr title  "data queue length, max"
scalar UniversityNetwork.accessPoint.wlan[0].mgmt 	dataQueueLen:timeavg 	39.64650828718
attr interpolationmode  sample-hold
attr title  "data queue length, timeavg"
scalar UniversityNetwork.accessPoint.wlan[0].mac 	"number of received packets" 	280944
scalar UniversityNetwork.accessPoint.wlan[0].mac 	"number of collisions" 	1430
scalar UniversityNetwork.accessPoint.wlan[0].mac 	"number of internal collisions" 	0
scalar UniversityNetwork.accessPoint.wlan[0].mac 	"number of retry for AC 0" 	20543
scalar UniversityNetwork.accessPoint.wlan[0].mac 	"sent and received bits" 	3197170080
scalar UniversityNetwork.accessPoint.wlan[0].mac 	"sent packet within AC 0" 	276207
scalar UniversityNetwork.accessPoint.wlan[0].mac 	"sent in TXOP " 	0
scalar UniversityNetwork.accessPoint.wlan[0].mac 	"sentWithoutRetry AC 0" 	256460
scalar UniversityNetwork.accessPoint.wlan[0].mac 	"numGivenUp AC 0" 	0
scalar UniversityNetwork.accessPoint.wlan[0].mac 	"numDropped AC 0" 	0
scalar UniversityNetwork.accessPoint.wlan[0].mac 	rcvdPkFromHL:count 	279446
attr interpolationmode  none
attr source  packetReceivedFromUpper
attr title  "packets received from higher layer, count"
scalar UniversityNetwork.accessPoint.wlan[0].mac 	rcvdPkFromHL:sum(packetBytes) 	399649344
attr interpolationmode  none
attr source  packetReceivedFromUpper
attr title  "packets received from higher layer, sum(packetBytes)"
scalar UniversityNetwork.accessPoint.wlan[0].mac 	passedUpPk:count 	280996
attr interpolationmode  none
attr source  packetSentToUpper
attr title  "packets passed to higher layer, count"
scalar UniversityNetwork.accessPoint.wlan[0].mac 	passedUpPk:sum(packetBytes) 	58682192
attr interpolationmode  none
attr source  packetSentToUpper
attr title  "packets passed to higher layer, sum(packetBytes)"
scalar UniversityNetwork.accessPoint.wlan[0].mac 	rcvdPkFromLL:count 	558638
attr interpolationmode  none
attr source  packetReceivedFromLower
attr title  "packets received from lower layer, count"
scalar UniversityNetwork.accessPoint.wlan[0].mac 	rcvdPkFromLL:sum(packetBytes) 	62864490
attr interpolationmode  none
attr source  packetReceivedFromLower
attr title  "packets received from lower layer, sum(packetBytes)"
scalar UniversityNetwork.accessPoint.wlan[0].mac 	sentDownPk:count 	580932
attr interpolationmode  none
attr source  packetSentToLower
attr title  "packets sent to lower layer, count"
scalar UniversityNetwork.accessPoint.wlan[0].mac 	sentDownPk:sum(packetBytes) 	432478613
attr interpolationmode  none
attr source  packetSentToLower
attr title  "packets sent to lower layer, sum(packetBytes)"
scalar UniversityNetwork.accessPoint.wlan[0].radio 	lossRate:min 	0
attr interpolationmode  backward-sample-hold
attr title  "packet loss rate, min"
scalar UniversityNetwork.accessPoint.wlan[0].radio 	lossRate:max 	0.36
attr interpolationmode  backward-sample-hold
attr title  "packet loss rate, max"
scalar UniversityNetwork.accessPoint.wlan[0].radio 	lossRate:timeavg 	0.0026122558599791
attr interpolationmode  backward-sample-hold
attr title  "packet loss rate, timeavg"
statistic UniversityNetwork.accessPoint.wlan[0].radio 	channelNo:histogram
field count 1
field mean 0
field stddev -nan
field sum 0
field sqrsum 0
field min 0
field max 0
attr interpolationmode  sample-hold
attr title  "channel no, histogram"
bin	-INF	0
bin	-0.5	0
bin	-0.46666666666667	0
bin	-0.43333333333333	0
bin	-0.4	0
bin	-0.36666666666667	0
bin	-0.33333333333333	0
bin	-0.3	0
bin	-0.26666666666667	0
bin	-0.23333333333333	0
bin	-0.2	0
bin	-0.16666666666667	0
bin	-0.13333333333333	0
bin	-0.1	0
bin	-0.066666666666667	0
bin	-0.033333333333333	0
bin	0	1
bin	0.033333333333333	0
bin	0.066666666666667	0
bin	0.1	0
bin	0.13333333333333	0
bin	0.16666666666667	0
bin	0.2	0
bin	0.23333333333333	0
bin	0.26666666666667	0
bin	0.3	0
bin	0.33333333333333	0
bin	0.36666666666667	0
bin	0.4	0
bin	0.43333333333333	0
bin	0.46666666666667	0
bin	0.5	0
scalar UniversityNetwork.accessPoint.wlan[0].radio 	radioState:count 	2292717
attr interpolationmode  sample-hold
attr title  "radio state (enum), count"
scalar UniversityNetwork.accessPoint.wlan[0].radio 	bitrate:min 	54000000
attr interpolationmode  sample-hold
attr title  "tx bitrate, min"
attr unit  bps
scalar UniversityNetwork.accessPoint.wlan[0].radio 	bitrate:max 	54000000
attr interpolationmode  sample-hold
attr title  "tx bitrate, max"
attr unit  bps
scalar UniversityNetwork.accessPoint.wlan[0].radio 	bitrate:timeavg 	54000000
attr interpolationmode  sample-hold
attr title  "tx bitrate, timeavg"
attr unit  bps
scalar UniversityNetwork.accessPoint.eth[0].mac 	"simulated time" 	300
scalar UniversityNetwork.accessPoint.eth[0].mac 	full-duplex 	1
scalar UniversityNetwork.accessPoint.eth[0].mac 	"frames/sec sent" 	935.96
scalar UniversityNetwork.accessPoint.eth[0].mac 	"frames/sec rcvd" 	959.49666666667
scalar UniversityNetwork.accessPoint.eth[0].mac 	"bits/sec sent" 	1413750.4
scalar UniversityNetwork.accessPoint.eth[0].mac 	"bits/sec rcvd" 	10774958.586667
scalar UniversityNetwork.accessPoint.eth[0].mac 	"rx channel idle (%)" 	89.163633626696
scalar UniversityNetwork.accessPoint.eth[0].mac 	"rx channel utilization (%)" 	10.836366373304
scalar UniversityNetwork.accessPoint.eth[0].mac 	rxPkFromHL:count 	280788
attr interpolationmode  none
attr source  rxPkFromHL
attr title  "packet bytes from higher layer, count"
scalar UniversityNetwork.accessPoint.eth[0].mac 	rxPkFromHL:sum(packetBytes) 	53015640
attr interpolationmode  none
attr source  rxPkFromHL
attr title  "packet bytes from higher layer, sum(packetBytes)"
scalar UniversityNetwork.accessPoint.eth[0].mac 	rxPausePkUnits:count 	0
attr interpolationmode  none
attr title  "pause units received, count"
scalar UniversityNetwork.accessPoint.eth[0].mac 	rxPausePkUnits:sum 	0
attr interpolationmode  none
attr title  "pause units received, sum"
scalar UniversityNetwork.accessPoint.eth[0].mac 	txPausePkUnits:count 	0
attr interpolationmode  none
attr title  "pause units sent, count"
scalar UniversityNetwork.accessPoint.eth[0].mac 	txPausePkUnits:sum 	0
attr interpolationmode  none
attr title  "pause units sent, sum"
scalar UniversityNetwork.accessPoint.eth[0].mac 	txPk:count 	280788
attr interpolationmode  none
attr source  txPk
attr title  "packets transmitted, count"
scalar UniversityNetwork.accessPoint.eth[0].mac 	txPk:sum(packetBytes) 	53015640
attr interpolationmode  none
attr source  txPk
attr title  "packets transmitted, sum(packetBytes)"
scalar UniversityNetwork.accessPoint.eth[0].mac 	droppedPkNotForUs:count 	0
attr interpolationmode  none
attr source  dropPkNotForUs
attr title  "packets dropped/not for us, count"
scalar UniversityNetwork.accessPoint.eth[0].mac 	droppedPkNotForUs:sum(packetBytes) 	0
attr interpolationmode  none
attr source  dropPkNotForUs
attr title  "packets dropped/not for us, sum(packetBytes)"
scalar UniversityNetwork.accessPoint.eth[0].mac 	passedUpPk:count 	287849
attr interpolationmode  none
attr source  packetSentToUpper
attr title  "packets passed to higher layer, count"
scalar UniversityNetwork.accessPoint.eth[0].mac 	passedUpPk:sum(packetBytes) 	404060947
attr interpolationmode  none
attr source  packetSentToUpper
attr title  "packets passed to higher layer, sum(packetBytes)"
scalar UniversityNetwork.accessPoint.eth[0].mac 	droppedPkBitError:count 	0
attr interpolationmode  none
attr source  dropPkBitError
attr title  "packets dropped/bit error, count"
scalar UniversityNetwork.accessPoint.eth[0].mac 	droppedPkBitError:sum(packetBytes) 	0
attr interpolationmode  none
attr source  dropPkBitError
attr title  "packets dropped/bit error, sum(packetBytes)"
scalar UniversityNetwork.accessPoint.eth[0].mac 	droppedPkIfaceDown:count 	0
attr interpolationmode  none
attr source  dropPkIfaceDown
attr title  "packets dropped/interface down, count"
scalar UniversityNetwork.accessPoint.eth[0].mac 	droppedPkIfaceDown:sum(packetBytes) 	0
attr interpolationmode  none
attr source  dropPkIfaceDown
attr title  "packets dropped/interface down, sum(packetBytes)"
scalar UniversityNetwork.accessPoint.eth[0].mac 	rxPkOk:count 	287849
attr interpolationmode  none
attr source  rxPkOk
attr title  "packets received OK, count"
scalar UniversityNetwork.accessPoint.eth[0].mac 	rxPkOk:sum(packetBytes) 	404060947
attr interpolationmode  none
attr source  rxPkOk
attr title  "packets received OK, sum(packetBytes)"
scalar UniversityNetwork.FTPUploader.networkLayer.arp 	initiatedARPResolution:count 	3
attr title  "ARP initiated resolutions, count"
scalar UniversityNetwork.FTPUploader.networkLayer.arp 	sentReply:count 	1
attr title  "ARP replies sent, count"
scalar UniversityNetwork.FTPUploader.networkLayer.arp 	sentReq:count 	3
attr title  "ARP request sent, count"
scalar UniversityNetwork.FTPUploader.networkLayer.arp 	failedARPResolution:count 	0
attr title  "ARP failed resolutions, count"
scalar UniversityNetwork.FTPUploader.networkLayer.arp 	completedARPResolution:count 	33
attr title  "ARP completed resolutions, count"
scalar UniversityNetwork.FTPUploader.lo0.lo 	rcvdPkFromHL:count 	0
attr interpolationmode  none
attr source  packetReceivedFromUpper
attr title  "packets received from higher layer, count"
scalar UniversityNetwork.FTPUploader.lo0.lo 	rcvdPkFromHL:sum(packetBytes) 	0
attr interpolationmode  none
attr source  packetReceivedFromUpper
attr title  "packets received from higher layer, sum(packetBytes)"
scalar UniversityNetwork.FTPUploader.lo0.lo 	passedUpPk:count 	0
attr interpolationmode  none
attr source  packetSentToUpper
attr title  "packets passed to higher layer, count"
scalar UniversityNetwork.FTPUploader.lo0.lo 	passedUpPk:sum(packetBytes) 	0
attr interpolationmode  none
attr source  packetSentToUpper
attr title  "packets passed to higher layer, sum(packetBytes)"
scalar UniversityNetwork.FTPUploader.lo0.lo 	droppedPkBitError:count 	0
attr interpolationmode  none
attr source  dropPkBitError
attr title  "packets dropped/bit error, count"
scalar UniversityNetwork.FTPUploader.lo0.lo 	droppedPkBitError:sum(packetBytes) 	0
attr interpolationmode  none
attr source  dropPkBitError
attr title  "packets dropped/bit error, sum(packetBytes)"
scalar UniversityNetwork.FTPUploader.wlan[0].agent 	dropConfirm:count 	0
attr title  "dropped confirms, count"
scalar UniversityNetwork.FTPUploader.wlan[0].agent 	acceptConfirm:count 	3
attr title  "accepted confirms, count"
scalar UniversityNetwork.FTPUploader.wlan[0].agent 	sentRequest:count 	3
attr title  "sent requests, count"
scalar UniversityNetwork.FTPUploader.wlan[0].mgmt 	dropPkByQueue:count 	78
attr interpolationmode  none
attr source  dropPkByQueue
attr title  "packets dropped by queue, count"
scalar UniversityNetwork.FTPUploader.wlan[0].mgmt 	dropPkByQueue:sum(packetBytes) 	120276
attr interpolationmode  none
attr source  dropPkByQueue
attr title  "packets dropped by queue, sum(packetBytes)"
scalar UniversityNetwork.FTPUploader.wlan[0].mgmt 	dataQueueLen:max 	50
attr interpolationmode  sample-hold
attr title  "data queue length, max"
scalar UniversityNetwork.FTPUploader.wlan[0].mgmt 	dataQueueLen:timeavg 	0.5942967115727
attr interpolationmode  sample-hold
attr title  "data queue length, timeavg"
scalar UniversityNetwork.FTPUploader.wlan[0].mac 	"number of received packets" 	13502
scalar UniversityNetwork.FTPUploader.wlan[0].mac 	"number of collisions" 	18685
scalar UniversityNetwork.FTPUploader.wlan[0].mac 	"number of internal collisions" 	0
scalar UniversityNetwork.FTPUploader.wlan[0].mac 	"number of retry for AC 0" 	3595
scalar UniversityNetwork.FTPUploader.wlan[0].mac 	"sent and received bits" 	209640304
scalar UniversityNetwork.FTPUploader.wlan[0].mac 	"sent packet within AC 0" 	17006
scalar UniversityNetwork.FTPUploader.wlan[0].mac 	"sent in TXOP " 	0
scalar UniversityNetwork.FTPUploader.wlan[0].mac 	"sentWithoutRetry AC 0" 	14221
scalar UniversityNetwork.FTPUploader.wlan[0].mac 	"numGivenUp AC 0" 	1
scalar UniversityNetwork.FTPUploader.wlan[0].mac 	"numDropped AC 0" 	0
scalar UniversityNetwork.FTPUploader.wlan[0].mac 	rcvdPkFromHL:count 	17008
attr interpolationmode  none
attr source  packetReceivedFromUpper
attr title  "packets received from higher layer, count"
scalar UniversityNetwork.FTPUploader.wlan[0].mac 	rcvdPkFromHL:sum(packetBytes) 	26206580
attr interpolationmode  none
attr source  packetReceivedFromUpper
attr title  "packets received from higher layer, sum(packetBytes)"
scalar UniversityNetwork.FTPUploader.wlan[0].mac 	passedUpPk:count 	16705
attr interpolationmode  none
attr source  packetSentToUpper
attr title  "packets passed to higher layer, count"
scalar UniversityNetwork.FTPUploader.wlan[0].mac 	passedUpPk:sum(packetBytes) 	1353072
attr interpolationmode  none
attr source  packetSentToUpper
attr title  "packets passed to higher layer, sum(packetBytes)"
scalar UniversityNetwork.FTPUploader.wlan[0].mac 	rcvdPkFromLL:count 	1105361
attr interpolationmode  none
attr source  packetReceivedFromLower
attr title  "packets received from lower layer, count"
scalar UniversityNetwork.FTPUploader.wlan[0].mac 	rcvdPkFromLL:sum(packetBytes) 	451873232
attr interpolationmode  none
attr source  packetReceivedFromLower
attr title  "packets received from lower layer, sum(packetBytes)"
scalar UniversityNetwork.FTPUploader.wlan[0].mac 	sentDownPk:count 	34105
attr interpolationmode  none
attr source  packetSentToLower
attr title  "packets sent to lower layer, count"
scalar UniversityNetwork.FTPUploader.wlan[0].mac 	sentDownPk:sum(packetBytes) 	31931040
attr interpolationmode  none
attr source  packetSentToLower
attr title  "packets sent to lower layer, sum(packetBytes)"
scalar UniversityNetwork.FTPUploader.wlan[0].radio 	lossRate:min 	0
attr interpolationmode  backward-sample-hold
[...]
attr title  "packets received, sum(packetBytes)"
statistic UniversityNetwork.Students[47].tcpApp[0] 	endToEndDelay:histogram
field count 5
field mean 15.795930421066
field stddev 19.673774618039
field sum 78.979652105329
field sqrsum 2795.7867202213
field min 0.442000159761
field max 49.743073219006
attr interpolationmode  none
attr source  messageAge(rcvdPk)
attr title  "end-to-end delay, histogram"
attr unit  s
bin	-INF	0
bin	-24.208536369861	0
bin	-20.921798165912	0
bin	-17.635059961962	0
bin	-14.348321758012	0
bin	-11.061583554063	0
bin	-7.7748453501132	0
bin	-4.4881071461635	0
bin	-1.2013689422138	1
bin	2.0853692617358	1
bin	5.3721074656855	0
bin	8.6588456696352	1
bin	11.945583873585	1
bin	15.232322077534	0
bin	18.519060281484	0
bin	21.805798485434	0
bin	25.092536689384	0
bin	28.379274893333	0
bin	31.666013097283	0
bin	34.952751301233	0
bin	38.239489505182	0
bin	41.526227709132	0
bin	44.812965913082	0
bin	48.099704117031	1
bin	51.386442320981	0
bin	54.67318052493	0
bin	57.95991872888	0
bin	61.24665693283	0
bin	64.533395136779	0
bin	67.820133340729	0
bin	71.106871544679	0
bin	74.393609748629	0
scalar UniversityNetwork.Students[48].networkLayer.arp 	initiatedARPResolution:count 	3
attr title  "ARP initiated resolutions, count"
scalar UniversityNetwork.Students[48].networkLayer.arp 	sentReply:count 	2
attr title  "ARP replies sent, count"
scalar UniversityNetwork.Students[48].networkLayer.arp 	sentReq:count 	5
attr title  "ARP request sent, count"
scalar UniversityNetwork.Students[48].networkLayer.arp 	failedARPResolution:count 	0
attr title  "ARP failed resolutions, count"
scalar UniversityNetwork.Students[48].networkLayer.arp 	completedARPResolution:count 	39
attr title  "ARP completed resolutions, count"
scalar UniversityNetwork.Students[48].lo0.lo 	rcvdPkFromHL:count 	0
attr interpolationmode  none
attr source  packetReceivedFromUpper
attr title  "packets received from higher layer, count"
scalar UniversityNetwork.Students[48].lo0.lo 	rcvdPkFromHL:sum(packetBytes) 	0
attr interpolationmode  none
attr source  packetReceivedFromUpper
attr title  "packets received from higher layer, sum(packetBytes)"
scalar UniversityNetwork.Students[48].lo0.lo 	passedUpPk:count 	0
attr interpolationmode  none
attr source  packetSentToUpper
attr title  "packets passed to higher layer, count"
scalar UniversityNetwork.Students[48].lo0.lo 	passedUpPk:sum(packetBytes) 	0
attr interpolationmode  none
attr source  packetSentToUpper
attr title  "packets passed to higher layer, sum(packetBytes)"
scalar UniversityNetwork.Students[48].lo0.lo 	droppedPkBitError:count 	0
attr interpolationmode  none
attr source  dropPkBitError
attr title  "packets dropped/bit error, count"
scalar UniversityNetwork.Students[48].lo0.lo 	droppedPkBitError:sum(packetBytes) 	0
attr interpolationmode  none
attr source  dropPkBitError
attr title  "packets dropped/bit error, sum(packetBytes)"
scalar UniversityNetwork.Students[48].wlan[0].agent 	dropConfirm:count 	0
attr title  "dropped confirms, count"
scalar UniversityNetwork.Students[48].wlan[0].agent 	acceptConfirm:count 	3
attr title  "accepted confirms, count"
scalar UniversityNetwork.Students[48].wlan[0].agent 	sentRequest:count 	3
attr title  "sent requests, count"
scalar UniversityNetwork.Students[48].wlan[0].mgmt 	dropPkByQueue:count 	0
attr interpolationmode  none
attr source  dropPkByQueue
attr title  "packets dropped by queue, count"
scalar UniversityNetwork.Students[48].wlan[0].mgmt 	dropPkByQueue:sum(packetBytes) 	0
attr interpolationmode  none
attr source  dropPkByQueue
attr title  "packets dropped by queue, sum(packetBytes)"
scalar UniversityNetwork.Students[48].wlan[0].mgmt 	dataQueueLen:max 	27
attr interpolationmode  sample-hold
attr title  "data queue length, max"
scalar UniversityNetwork.Students[48].wlan[0].mgmt 	dataQueueLen:timeavg 	0.00157926976249
attr interpolationmode  sample-hold
attr title  "data queue length, timeavg"
scalar UniversityNetwork.Students[48].wlan[0].mac 	"number of received packets" 	3319
scalar UniversityNetwork.Students[48].wlan[0].mac 	"number of collisions" 	22425
scalar UniversityNetwork.Students[48].wlan[0].mac 	"number of internal collisions" 	0
scalar UniversityNetwork.Students[48].wlan[0].mac 	"number of retry for AC 0" 	247
scalar UniversityNetwork.Students[48].wlan[0].mac 	"sent and received bits" 	2319024
scalar UniversityNetwork.Students[48].wlan[0].mac 	"sent packet within AC 0" 	3352
scalar UniversityNetwork.Students[48].wlan[0].mac 	"sent in TXOP " 	0
scalar UniversityNetwork.Students[48].wlan[0].mac 	"sentWithoutRetry AC 0" 	3112
scalar UniversityNetwork.Students[48].wlan[0].mac 	"numGivenUp AC 0" 	0
scalar UniversityNetwork.Students[48].wlan[0].mac 	"numDropped AC 0" 	0
scalar UniversityNetwork.Students[48].wlan[0].mac 	rcvdPkFromHL:count 	3353
attr interpolationmode  none
attr source  packetReceivedFromUpper
attr title  "packets received from higher layer, count"
scalar UniversityNetwork.Students[48].wlan[0].mac 	rcvdPkFromHL:sum(packetBytes) 	289878
attr interpolationmode  none
attr source  packetReceivedFromUpper
attr title  "packets received from higher layer, sum(packetBytes)"
scalar UniversityNetwork.Students[48].wlan[0].mac 	passedUpPk:count 	6515
attr interpolationmode  none
attr source  packetSentToUpper
attr title  "packets passed to higher layer, count"
scalar UniversityNetwork.Students[48].wlan[0].mac 	passedUpPk:sum(packetBytes) 	5216043
attr interpolationmode  none
attr source  packetSentToUpper
attr title  "packets passed to higher layer, sum(packetBytes)"
scalar UniversityNetwork.Students[48].wlan[0].mac 	rcvdPkFromLL:count 	1132650
attr interpolationmode  none
attr source  packetReceivedFromLower
attr title  "packets received from lower layer, count"
scalar UniversityNetwork.Students[48].wlan[0].mac 	rcvdPkFromLL:sum(packetBytes) 	481595218
attr interpolationmode  none
attr source  packetReceivedFromLower
attr title  "packets received from lower layer, sum(packetBytes)"
scalar UniversityNetwork.Students[48].wlan[0].mac 	sentDownPk:count 	6919
attr interpolationmode  none
attr source  packetSentToLower
attr title  "packets sent to lower layer, count"
scalar UniversityNetwork.Students[48].wlan[0].mac 	sentDownPk:sum(packetBytes) 	361884
attr interpolationmode  none
attr source  packetSentToLower
attr title  "packets sent to lower layer, sum(packetBytes)"
scalar UniversityNetwork.Students[48].wlan[0].radio 	lossRate:min 	0
attr interpolationmode  backward-sample-hold
attr title  "packet loss rate, min"
scalar UniversityNetwork.Students[48].wlan[0].radio 	lossRate:max 	0.28
attr interpolationmode  backward-sample-hold
attr title  "packet loss rate, max"
scalar UniversityNetwork.Students[48].wlan[0].radio 	lossRate:timeavg 	0.019832276452774
attr interpolationmode  backward-sample-hold
attr title  "packet loss rate, timeavg"
statistic UniversityNetwork.Students[48].wlan[0].radio 	channelNo:histogram
field count 1
field mean 0
field stddev -nan
field sum 0
field sqrsum 0
field min 0
field max 0
attr interpolationmode  sample-hold
attr title  "channel no, histogram"
bin	-INF	0
bin	-0.5	0
bin	-0.46666666666667	0
bin	-0.43333333333333	0
bin	-0.4	0
bin	-0.36666666666667	0
bin	-0.33333333333333	0
bin	-0.3	0
bin	-0.26666666666667	0
bin	-0.23333333333333	0
bin	-0.2	0
bin	-0.16666666666667	0
bin	-0.13333333333333	0
bin	-0.1	0
bin	-0.066666666666667	0
bin	-0.033333333333333	0
bin	0	1
bin	0.033333333333333	0
bin	0.066666666666667	0
bin	0.1	0
bin	0.13333333333333	0
bin	0.16666666666667	0
bin	0.2	0
bin	0.23333333333333	0
bin	0.26666666666667	0
bin	0.3	0
bin	0.33333333333333	0
bin	0.36666666666667	0
bin	0.4	0
bin	0.43333333333333	0
bin	0.46666666666667	0
bin	0.5	0
scalar UniversityNetwork.Students[48].wlan[0].radio 	radioState:count 	2279268
attr interpolationmode  sample-hold
attr title  "radio state (enum), count"
scalar UniversityNetwork.Students[48].wlan[0].radio 	bitrate:min 	54000000
attr interpolationmode  sample-hold
attr title  "tx bitrate, min"
attr unit  bps
scalar UniversityNetwork.Students[48].wlan[0].radio 	bitrate:max 	54000000
attr interpolationmode  sample-hold
attr title  "tx bitrate, max"
attr unit  bps
scalar UniversityNetwork.Students[48].wlan[0].radio 	bitrate:timeavg 	54000000
attr interpolationmode  sample-hold
attr title  "tx bitrate, timeavg"
attr unit  bps
scalar UniversityNetwork.Students[48].tcpApp[0] 	numActiveSessions:max 	1
attr interpolationmode  sample-hold
attr source  sum(connect)
attr title  "number of active sessions, max"
scalar UniversityNetwork.Students[48].tcpApp[0] 	numActiveSessions:timeavg 	0.42209930030788
attr interpolationmode  sample-hold
attr source  sum(connect)
attr title  "number of active sessions, timeavg"
scalar UniversityNetwork.Students[48].tcpApp[0] 	numSessions:last 	18
attr source  sum(connect+1)/2
attr title  "total number of sessions, last"
scalar UniversityNetwork.Students[48].tcpApp[0] 	sentPk:count 	18
attr interpolationmode  none
attr source  sentPk
attr title  "packets sent, count"
scalar UniversityNetwork.Students[48].tcpApp[0] 	sentPk:sum(packetBytes) 	13500
attr interpolationmode  none
attr source  sentPk
attr title  "packets sent, sum(packetBytes)"
scalar UniversityNetwork.Students[48].tcpApp[0] 	rcvdPk:count 	17
attr interpolationmode  none
attr source  rcvdPk
attr title  "packets received, count"
scalar UniversityNetwork.Students[48].tcpApp[0] 	rcvdPk:sum(packetBytes) 	4311912
attr interpolationmode  none
attr source  rcvdPk
attr title  "packets received, sum(packetBytes)"
statistic UniversityNetwork.Students[48].tcpApp[0] 	endToEndDelay:histogram
field count 17
field mean 5.8557023191202
field stddev 5.5429993192267
field sum 99.546939425043
field sqrsum 1074.5147072997
field min 0.347769839357
field max 16.724282577493
attr interpolationmode  none
attr source  messageAge(rcvdPk)
attr title  "end-to-end delay, histogram"
attr unit  s
bin	-INF	0
bin	-7.840486529711	0
bin	-6.7487190138353	0
bin	-5.6569514979595	0
bin	-4.5651839820838	0
bin	-3.4734164662081	0
bin	-2.3816489503323	0
bin	-1.2898814344566	0
bin	-0.19811391858087	5
bin	0.89365359729487	1
bin	1.9854211131706	1
bin	3.0771886290463	0
bin	4.1689561449221	3
bin	5.2607236607978	1
bin	6.3524911766735	0
bin	7.4442586925493	1
bin	8.536026208425	1
bin	9.6277937243007	0
bin	10.719561240176	1
bin	11.811328756052	1
bin	12.903096271928	0
bin	13.994863787804	0
bin	15.086631303679	1
bin	16.178398819555	1
bin	17.270166335431	0
bin	18.361933851307	0
bin	19.453701367182	0
bin	20.545468883058	0
bin	21.637236398934	0
bin	22.72900391481	0
bin	23.820771430685	0
bin	24.912538946561	0
scalar UniversityNetwork.Students[49].networkLayer.arp 	initiatedARPResolution:count 	5
attr title  "ARP initiated resolutions, count"
scalar UniversityNetwork.Students[49].networkLayer.arp 	sentReply:count 	0
attr title  "ARP replies sent, count"
scalar UniversityNetwork.Students[49].networkLayer.arp 	sentReq:count 	9
attr title  "ARP request sent, count"
scalar UniversityNetwork.Students[49].networkLayer.arp 	failedARPResolution:count 	2
attr title  "ARP failed resolutions, count"
scalar UniversityNetwork.Students[49].networkLayer.arp 	completedARPResolution:count 	3
attr title  "ARP completed resolutions, count"
scalar UniversityNetwork.Students[49].lo0.lo 	rcvdPkFromHL:count 	0
attr interpolationmode  none
attr source  packetReceivedFromUpper
attr title  "packets received from higher layer, count"
scalar UniversityNetwork.Students[49].lo0.lo 	rcvdPkFromHL:sum(packetBytes) 	0
attr interpolationmode  none
attr source  packetReceivedFromUpper
attr title  "packets received from higher layer, sum(packetBytes)"
scalar UniversityNetwork.Students[49].lo0.lo 	passedUpPk:count 	0
attr interpolationmode  none
attr source  packetSentToUpper
attr title  "packets passed to higher layer, count"
scalar UniversityNetwork.Students[49].lo0.lo 	passedUpPk:sum(packetBytes) 	0
attr interpolationmode  none
attr source  packetSentToUpper
attr title  "packets passed to higher layer, sum(packetBytes)"
scalar UniversityNetwork.Students[49].lo0.lo 	droppedPkBitError:count 	0
attr interpolationmode  none
attr source  dropPkBitError
attr title  "packets dropped/bit error, count"
scalar UniversityNetwork.Students[49].lo0.lo 	droppedPkBitError:sum(packetBytes) 	0
attr interpolationmode  none
attr source  dropPkBitError
attr title  "packets dropped/bit error, sum(packetBytes)"
scalar UniversityNetwork.Students[49].wlan[0].agent 	dropConfirm:count 	0
attr title  "dropped confirms, count"
scalar UniversityNetwork.Students[49].wlan[0].agent 	acceptConfirm:count 	3
attr title  "accepted confirms, count"
scalar UniversityNetwork.Students[49].wlan[0].agent 	sentRequest:count 	3
attr title  "sent requests, count"
scalar UniversityNetwork.Students[49].wlan[0].mgmt 	dropPkByQueue:count 	0
attr interpolationmode  none
attr source  dropPkByQueue
attr title  "packets dropped by queue, count"
scalar UniversityNetwork.Students[49].wlan[0].mgmt 	dropPkByQueue:sum(packetBytes) 	0
attr interpolationmode  none
attr source  dropPkByQueue
attr title  "packets dropped by queue, sum(packetBytes)"
scalar UniversityNetwork.Students[49].wlan[0].mgmt 	dataQueueLen:max 	16
attr interpolationmode  sample-hold
attr title  "data queue length, max"
scalar UniversityNetwork.Students[49].wlan[0].mgmt 	dataQueueLen:timeavg 	0.0023332307120667
attr interpolationmode  sample-hold
attr title  "data queue length, timeavg"
scalar UniversityNetwork.Students[49].wlan[0].mac 	"number of received packets" 	5153
scalar UniversityNetwork.Students[49].wlan[0].mac 	"number of collisions" 	22095
scalar UniversityNetwork.Students[49].wlan[0].mac 	"number of internal collisions" 	0
scalar UniversityNetwork.Students[49].wlan[0].mac 	"number of retry for AC 0" 	433
scalar UniversityNetwork.Students[49].wlan[0].mac 	"sent and received bits" 	3477616
scalar UniversityNetwork.Students[49].wlan[0].mac 	"sent packet within AC 0" 	5174
scalar UniversityNetwork.Students[49].wlan[0].mac 	"sent in TXOP " 	0
scalar UniversityNetwork.Students[49].wlan[0].mac 	"sentWithoutRetry AC 0" 	4758
scalar UniversityNetwork.Students[49].wlan[0].mac 	"numGivenUp AC 0" 	0
scalar UniversityNetwork.Students[49].wlan[0].mac 	"numDropped AC 0" 	0
scalar UniversityNetwork.Students[49].wlan[0].mac 	rcvdPkFromHL:count 	5175
attr interpolationmode  none
attr source  packetReceivedFromUpper
attr title  "packets received from higher layer, count"
scalar UniversityNetwork.Students[49].wlan[0].mac 	rcvdPkFromHL:sum(packetBytes) 	434702
attr interpolationmode  none
attr source  packetReceivedFromUpper
attr title  "packets received from higher layer, sum(packetBytes)"
scalar UniversityNetwork.Students[49].wlan[0].mac 	passedUpPk:count 	8383
attr interpolationmode  none
attr source  packetSentToUpper
attr title  "packets passed to higher layer, count"
scalar UniversityNetwork.Students[49].wlan[0].mac 	passedUpPk:sum(packetBytes) 	8064035
attr interpolationmode  none
attr source  packetSentToUpper
attr title  "packets passed to higher layer, sum(packetBytes)"
scalar UniversityNetwork.Students[49].wlan[0].mac 	rcvdPkFromLL:count 	1128808
attr interpolationmode  none
attr source  packetReceivedFromLower
attr title  "packets received from lower layer, count"
scalar UniversityNetwork.Students[49].wlan[0].mac 	rcvdPkFromLL:sum(packetBytes) 	481378190
attr interpolationmode  none
attr source  packetReceivedFromLower
attr title  "packets received from lower layer, sum(packetBytes)"
scalar UniversityNetwork.Students[49].wlan[0].mac 	sentDownPk:count 	10761
attr interpolationmode  none
attr source  packetSentToLower
attr title  "packets sent to lower layer, count"
scalar UniversityNetwork.Students[49].wlan[0].mac 	sentDownPk:sum(packetBytes) 	542258
attr interpolationmode  none
attr source  packetSentToLower
attr title  "packets sent to lower layer, sum(packetBytes)"
scalar UniversityNetwork.Students[49].wlan[0].radio 	lossRate:min 	0
attr interpolationmode  backward-sample-hold
attr title  "packet loss rate, min"
scalar UniversityNetwork.Students[49].wlan[0].radio 	lossRate:max 	0.26
attr interpolationmode  backward-sample-hold
attr title  "packet loss rate, max"
scalar UniversityNetwork.Students[49].wlan[0].radio 	lossRate:timeavg 	0.01957559539041
attr interpolationmode  backward-sample-hold
attr title  "packet loss rate, timeavg"
statistic UniversityNetwork.Students[49].wlan[0].radio 	channelNo:histogram
field count 1
field mean 0
field stddev -nan
field sum 0
field sqrsum 0
field min 0
field max 0
attr interpolationmode  sample-hold
attr title  "channel no, histogram"
bin	-INF	0
bin	-0.5	0
bin	-0.46666666666667	0
bin	-0.43333333333333	0
bin	-0.4	0
bin	-0.36666666666667	0
bin	-0.33333333333333	0
bin	-0.3	0
bin	-0.26666666666667	0
bin	-0.23333333333333	0
bin	-0.2	0
bin	-0.16666666666667	0
bin	-0.13333333333333	0
bin	-0.1	0
bin	-0.066666666666667	0
bin	-0.033333333333333	0
bin	0	1
bin	0.033333333333333	0
bin	0.066666666666667	0
bin	0.1	0
bin	0.13333333333333	0
bin	0.16666666666667	0
bin	0.2	0
bin	0.23333333333333	0
bin	0.26666666666667	0
bin	0.3	0
bin	0.33333333333333	0
bin	0.36666666666667	0
bin	0.4	0
bin	0.43333333333333	0
bin	0.46666666666667	0
bin	0.5	0
scalar UniversityNetwork.Students[49].wlan[0].radio 	radioState:count 	2279525
attr interpolationmode  sample-hold
attr title  "radio state (enum), count"
scalar UniversityNetwork.Students[49].wlan[0].radio 	bitrate:min 	54000000
attr interpolationmode  sample-hold
attr title  "tx bitrate, min"
attr unit  bps
scalar UniversityNetwork.Students[49].wlan[0].radio 	bitrate:max 	54000000
attr interpolationmode  sample-hold
attr title  "tx bitrate, max"
attr unit  bps
scalar UniversityNetwork.Students[49].wlan[0].radio 	bitrate:timeavg 	54000000
attr interpolationmode  sample-hold
attr title  "tx bitrate, timeavg"
attr unit  bps
scalar UniversityNetwork.Students[49].tcpApp[0] 	numActiveSessions:max 	1
attr interpolationmode  sample-hold
attr source  sum(connect)
attr title  "number of active sessions, max"
scalar UniversityNetwork.Students[49].tcpApp[0] 	numActiveSessions:timeavg 	0.35439319531476
attr interpolationmode  sample-hold
attr source  sum(connect)
attr title  "number of active sessions, timeavg"
scalar UniversityNetwork.Students[49].tcpApp[0] 	numSessions:last 	14
attr source  sum(connect+1)/2
attr title  "total number of sessions, last"
scalar UniversityNetwork.Students[49].tcpApp[0] 	sentPk:count 	14
attr interpolationmode  none
attr source  sentPk
attr title  "packets sent, count"
scalar UniversityNetwork.Students[49].tcpApp[0] 	sentPk:sum(packetBytes) 	10500
attr interpolationmode  none
attr source  sentPk
attr title  "packets sent, sum(packetBytes)"
scalar UniversityNetwork.Students[49].tcpApp[0] 	rcvdPk:count 	14
attr interpolationmode  none
attr source  rcvdPk
attr title  "packets received, count"
scalar UniversityNetwork.Students[49].tcpApp[0] 	rcvdPk:sum(packetBytes) 	7242221
attr interpolationmode  none
attr source  rcvdPk
attr title  "packets received, sum(packetBytes)"
statistic UniversityNetwork.Students[49].tcpApp[0] 	endToEndDelay:histogram
field count 14
field mean 5.9726327533971
field stddev 4.3006521736558
field sum 83.61685854756
field sqrsum 739.85570664134
field min 0.695529371476
field max 16.173204266161
attr interpolationmode  none
attr source  messageAge(rcvdPk)
attr title  "end-to-end delay, histogram"
attr unit  s
bin	-INF	0
bin	-7.0433080758665	0
bin	-6.0114630828875	0
bin	-4.9796180899085	0
bin	-3.9477730969295	0
bin	-2.9159281039505	0
bin	-1.8840831109715	0
bin	-0.8522381179925	0
bin	0.1796068749865	2
bin	1.2114518679655	1
bin	2.2432968609445	0
bin	3.2751418539235	2
bin	4.3069868469025	1
bin	5.3388318398815	5
bin	6.3706768328605	0
bin	7.4025218258395	0
bin	8.4343668188185	0
bin	9.4662118117975	1
bin	10.498056804776	0
bin	11.529901797755	1
bin	12.561746790734	0
bin	13.593591783713	0
bin	14.625436776692	0
bin	15.657281769671	1
bin	16.68912676265	0
bin	17.720971755629	0
bin	18.752816748608	0
bin	19.784661741587	0
bin	20.816506734566	0
bin	21.848351727545	0
bin	22.880196720524	0
bin	23.912041713503	0
