version 2
run New-two-FourtyFiveStudents-7-20160819-05:29:48-4600
attr configname New-two-FourtyFiveStudents
attr datetime 20160819-05:29:48
attr experiment New-two-FourtyFiveStudents
attr inifile omnetpp.ini
attr iterationvars ""
attr iterationvars2 $repetition=7
attr measurement ""
attr network UniversityNetwork
attr processid 4600
attr repetition 7
attr replication #7
attr resultdir results
attr runnumber 7
attr seedset 7

scalar UniversityNetwork.CCTV.networkLayer.arp 	initiatedARPResolution:count 	0
attr title  "ARP initiated resolutions, count"
scalar UniversityNetwork.CCTV.networkLayer.arp 	sentReply:count 	0
attr title  "ARP replies sent, count"
scalar UniversityNetwork.CCTV.networkLayer.arp 	sentReq:count 	0
attr title  "ARP request sent, count"
scalar UniversityNetwork.CCTV.networkLayer.arp 	failedARPResolution:count 	0
attr title  "ARP failed resolutions, count"
scalar UniversityNetwork.CCTV.networkLayer.arp 	completedARPResolution:count 	0
attr title  "ARP completed resolutions, count"
scalar UniversityNetwork.CCTV.lo0.lo 	rcvdPkFromHL:count 	0
attr interpolationmode  none
attr source  packetReceivedFromUpper
attr title  "packets received from higher layer, count"
scalar UniversityNetwork.CCTV.lo0.lo 	rcvdPkFromHL:sum(packetBytes) 	0
attr interpolationmode  none
attr source  packetReceivedFromUpper
attr title  "packets received from higher layer, sum(packetBytes)"
scalar UniversityNetwork.CCTV.lo0.lo 	passedUpPk:count 	0
attr interpolationmode  none
attr source  packetSentToUpper
attr title  "packets passed to higher layer, count"
scalar UniversityNetwork.CCTV.lo0.lo 	passedUpPk:sum(packetBytes) 	0
attr interpolationmode  none
attr source  packetSentToUpper
attr title  "packets passed to higher layer, sum(packetBytes)"
scalar UniversityNetwork.CCTV.lo0.lo 	droppedPkBitError:count 	0
attr interpolationmode  none
attr source  dropPkBitError
attr title  "packets dropped/bit error, count"
scalar UniversityNetwork.CCTV.lo0.lo 	droppedPkBitError:sum(packetBytes) 	0
attr interpolationmode  none
attr source  dropPkBitError
attr title  "packets dropped/bit error, sum(packetBytes)"
scalar UniversityNetwork.CCTV.ppp[0].inputHook[0] 	duration 	500
scalar UniversityNetwork.CCTV.ppp[0].inputHook[0] 	"total packets" 	0
scalar UniversityNetwork.CCTV.ppp[0].inputHook[0] 	"total bits" 	0
scalar UniversityNetwork.CCTV.ppp[0].inputHook[0] 	"avg throughput (bit/s)" 	0
scalar UniversityNetwork.CCTV.ppp[0].inputHook[0] 	"avg packets/s" 	0
statistic UniversityNetwork.CCTV.ppp[0].queue 	queueingTime:histogram
field count 37497
field mean 0.00035800000000013
field stddev 0.00029230967377204
field sum 13.423926000005
field sqrsum 0.0080096091799988
field min 0
field max 0.000716
attr interpolationmode  none
attr title  "queueing time, histogram"
bin	-INF	0
bin	-0.000358	0
bin	-0.00031026666666667	0
bin	-0.00026253333333333	0
bin	-0.0002148	0
bin	-0.00016706666666667	0
bin	-0.00011933333333333	0
bin	-7.16e-05	0
bin	-2.3866666666667e-05	12499
bin	2.3866666666667e-05	0
bin	7.16e-05	0
bin	0.00011933333333333	0
bin	0.00016706666666667	0
bin	0.0002148	0
bin	0.00026253333333333	0
bin	0.00031026666666667	0
bin	0.000358	12499
bin	0.00040573333333333	0
bin	0.00045346666666667	0
bin	0.0005012	0
bin	0.00054893333333333	0
bin	0.00059666666666667	0
bin	0.0006444	0
bin	0.00069213333333333	12499
bin	0.00073986666666667	0
bin	0.0007876	0
bin	0.00083533333333333	0
bin	0.00088306666666667	0
bin	0.0009308	0
bin	0.00097853333333333	0
bin	0.0010262666666667	0
bin	0.001074	0
scalar UniversityNetwork.CCTV.ppp[0].queue 	dropPk:count 	0
attr interpolationmode  none
attr source  dropPkByQueue
attr title  "dropped packets, count"
scalar UniversityNetwork.CCTV.ppp[0].queue 	dropPk:sum(packetBytes) 	0
attr interpolationmode  none
attr source  dropPkByQueue
attr title  "dropped packets, sum(packetBytes)"
scalar UniversityNetwork.CCTV.ppp[0].queue 	queueLength:max 	2
attr interpolationmode  sample-hold
attr title  "queue length, max"
scalar UniversityNetwork.CCTV.ppp[0].queue 	queueLength:timeavg 	0.026847852000009
attr interpolationmode  sample-hold
attr title  "queue length, timeavg"
scalar UniversityNetwork.CCTV.ppp[0].queue 	rcvdPk:count 	37497
attr interpolationmode  none
attr title  "received packets, count"
scalar UniversityNetwork.CCTV.ppp[0].queue 	rcvdPk:sum(packetBytes) 	125839932
attr interpolationmode  none
attr title  "received packets, sum(packetBytes)"
scalar UniversityNetwork.CCTV.ppp[0].ppp 	rcvdPkFromHL:count 	37497
attr interpolationmode  none
attr source  packetReceivedFromUpper
attr title  "packets received from higher layer, count"
scalar UniversityNetwork.CCTV.ppp[0].ppp 	rcvdPkFromHL:sum(packetBytes) 	125839932
attr interpolationmode  none
attr source  packetReceivedFromUpper
attr title  "packets received from higher layer, sum(packetBytes)"
scalar UniversityNetwork.CCTV.ppp[0].ppp 	passedUpPk:count 	0
attr interpolationmode  none
attr source  packetSentToUpper
attr title  "packets passed to higher layer, count"
scalar UniversityNetwork.CCTV.ppp[0].ppp 	passedUpPk:sum(packetBytes) 	0
attr interpolationmode  none
attr source  packetSentToUpper
attr title  "packets passed to higher layer, sum(packetBytes)"
scalar UniversityNetwork.CCTV.ppp[0].ppp 	txPk:count 	37497
attr interpolationmode  none
attr source  packetSentToLower
attr title  "packets transmitted, count"
scalar UniversityNetwork.CCTV.ppp[0].ppp 	txPk:sum(packetBytes) 	126102411
attr interpolationmode  none
attr source  packetSentToLower
attr title  "packets transmitted, sum(packetBytes)"
scalar UniversityNetwork.CCTV.ppp[0].ppp 	droppedPkBitError:count 	0
attr interpolationmode  none
attr source  dropPkBitError
attr title  "packets dropped/bit error, count"
scalar UniversityNetwork.CCTV.ppp[0].ppp 	droppedPkBitError:sum(packetBytes) 	0
attr interpolationmode  none
attr source  dropPkBitError
attr title  "packets dropped/bit error, sum(packetBytes)"
scalar UniversityNetwork.CCTV.ppp[0].ppp 	droppedPkIfaceDown:count 	0
attr interpolationmode  none
attr source  dropPkIfaceDown
attr title  "packets dropped/interface down, count"
scalar UniversityNetwork.CCTV.ppp[0].ppp 	droppedPkIfaceDown:sum(packetBytes) 	0
attr interpolationmode  none
attr source  dropPkIfaceDown
attr title  "packets dropped/interface down, sum(packetBytes)"
scalar UniversityNetwork.CCTV.ppp[0].ppp 	rxPkOk:count 	0
attr interpolationmode  none
attr source  rxPkOk
attr title  "packets received OK, count"
scalar UniversityNetwork.CCTV.ppp[0].ppp 	rxPkOk:sum(packetBytes) 	0
attr interpolationmode  none
attr source  rxPkOk
attr title  "packets received OK, sum(packetBytes)"
scalar UniversityNetwork.CCTV.ppp[0].ppp 	txState:timeavg 	0.020176385760006
attr interpolationmode  sample-hold
attr title  "tx state, timeavg"
scalar UniversityNetwork.CCTV.udpApp[0] 	"packets sent" 	12500
scalar UniversityNetwork.CCTV.udpApp[0] 	"packets received" 	0
scalar UniversityNetwork.CCTV.udpApp[0] 	sentPk:count 	12500
attr interpolationmode  none
attr source  sentPk
attr title  "packets sent, count"
scalar UniversityNetwork.CCTV.udpApp[0] 	sentPk:sum(packetBytes) 	125000000
attr interpolationmode  none
attr source  sentPk
attr title  "packets sent, sum(packetBytes)"
scalar UniversityNetwork.CCTV.udpApp[0] 	rcvdPk:count 	0
attr interpolationmode  none
attr source  rcvdPk
attr title  "packets received, count"
scalar UniversityNetwork.CCTV.udpApp[0] 	rcvdPk:sum(packetBytes) 	0
attr interpolationmode  none
attr source  rcvdPk
attr title  "packets received, sum(packetBytes)"
statistic UniversityNetwork.CCTV.udpApp[0] 	rcvdPkLifetime:stats
field count 0
field mean -nan
field stddev -nan
field sum 0
field sqrsum 0
field min -nan
field max -nan
attr interpolationmode  none
attr source  messageAge(rcvdPk)
attr title  "received packet lifetime, stats"
attr unit  s
scalar UniversityNetwork.CCTV.udp 	droppedPkBadChecksum:count 	0
attr interpolationmode  none
attr title  "packets dropped (checksum error), count"
scalar UniversityNetwork.CCTV.udp 	droppedPkWrongPort:count 	0
attr interpolationmode  none
attr title  "packets dropped (wrong port), count"
scalar UniversityNetwork.CCTV.udp 	passedUpPk:count 	0
attr interpolationmode  none
attr title  "packets passed up, count"
scalar UniversityNetwork.CCTV.udp 	sentPk:count 	12499
attr interpolationmode  none
attr source  sentPk
attr title  "packets sent, count"
scalar UniversityNetwork.CCTV.udp 	sentPk:sum(packetBytes) 	125089992
attr interpolationmode  none
attr source  sentPk
attr title  "packets sent, sum(packetBytes)"
scalar UniversityNetwork.CCTV.udp 	rcvdPk:count 	0
attr interpolationmode  none
attr source  rcvdPk
attr title  "packets received, count"
scalar UniversityNetwork.CCTV.udp 	rcvdPk:sum(packetBytes) 	0
attr interpolationmode  none
attr source  rcvdPk
attr title  "packets received, sum(packetBytes)"
scalar UniversityNetwork.CCTVMonitoring.networkLayer.arp 	initiatedARPResolution:count 	0
attr title  "ARP initiated resolutions, count"
scalar UniversityNetwork.CCTVMonitoring.networkLayer.arp 	sentReply:count 	0
attr title  "ARP replies sent, count"
scalar UniversityNetwork.CCTVMonitoring.networkLayer.arp 	sentReq:count 	0
attr title  "ARP request sent, count"
scalar UniversityNetwork.CCTVMonitoring.networkLayer.arp 	failedARPResolution:count 	0
attr title  "ARP failed resolutions, count"
scalar UniversityNetwork.CCTVMonitoring.networkLayer.arp 	completedARPResolution:count 	0
attr title  "ARP completed resolutions, count"
scalar UniversityNetwork.CCTVMonitoring.lo0.lo 	rcvdPkFromHL:count 	0
attr interpolationmode  none
attr source  packetReceivedFromUpper
attr title  "packets received from higher layer, count"
scalar UniversityNetwork.CCTVMonitoring.lo0.lo 	rcvdPkFromHL:sum(packetBytes) 	0
attr interpolationmode  none
attr source  packetReceivedFromUpper
attr title  "packets received from higher layer, sum(packetBytes)"
scalar UniversityNetwork.CCTVMonitoring.lo0.lo 	passedUpPk:count 	0
attr interpolationmode  none
attr source  packetSentToUpper
attr title  "packets passed to higher layer, count"
scalar UniversityNetwork.CCTVMonitoring.lo0.lo 	passedUpPk:sum(packetBytes) 	0
attr interpolationmode  none
attr source  packetSentToUpper
attr title  "packets passed to higher layer, sum(packetBytes)"
scalar UniversityNetwork.CCTVMonitoring.lo0.lo 	droppedPkBitError:count 	0
attr interpolationmode  none
attr source  dropPkBitError
attr title  "packets dropped/bit error, count"
scalar UniversityNetwork.CCTVMonitoring.lo0.lo 	droppedPkBitError:sum(packetBytes) 	0
attr interpolationmode  none
attr source  dropPkBitError
attr title  "packets dropped/bit error, sum(packetBytes)"
scalar UniversityNetwork.CCTVMonitoring.ppp[0].inputHook[0] 	duration 	500
scalar UniversityNetwork.CCTVMonitoring.ppp[0].inputHook[0] 	"total packets" 	37497
scalar UniversityNetwork.CCTVMonitoring.ppp[0].inputHook[0] 	"total bits" 	1006719456
scalar UniversityNetwork.CCTVMonitoring.ppp[0].inputHook[0] 	"avg throughput (bit/s)" 	2013438.912
scalar UniversityNetwork.CCTVMonitoring.ppp[0].inputHook[0] 	"avg packets/s" 	74.994
statistic UniversityNetwork.CCTVMonitoring.ppp[0].queue 	queueingTime:histogram
field count 0
field mean -nan
field stddev -nan
field sum 0
field sqrsum 0
field min -nan
field max -nan
attr interpolationmode  none
attr title  "queueing time, histogram"
bin	-INF	0
bin	-0.5	0
bin	-0.46666666666667	0
bin	-0.43333333333333	0
bin	-0.4	0
bin	-0.36666666666667	0
bin	-0.33333333333333	0
bin	-0.3	0
bin	-0.26666666666667	0
bin	-0.23333333333333	0
bin	-0.2	0
bin	-0.16666666666667	0
bin	-0.13333333333333	0
bin	-0.1	0
bin	-0.066666666666667	0
bin	-0.033333333333333	0
bin	0	0
bin	0.033333333333333	0
bin	0.066666666666667	0
bin	0.1	0
bin	0.13333333333333	0
bin	0.16666666666667	0
bin	0.2	0
bin	0.23333333333333	0
bin	0.26666666666667	0
bin	0.3	0
bin	0.33333333333333	0
bin	0.36666666666667	0
bin	0.4	0
bin	0.43333333333333	0
bin	0.46666666666667	0
bin	0.5	0
scalar UniversityNetwork.CCTVMonitoring.ppp[0].queue 	dropPk:count 	0
attr interpolationmode  none
attr source  dropPkByQueue
attr title  "dropped packets, count"
scalar UniversityNetwork.CCTVMonitoring.ppp[0].queue 	dropPk:sum(packetBytes) 	0
attr interpolationmode  none
attr source  dropPkByQueue
attr title  "dropped packets, sum(packetBytes)"
scalar UniversityNetwork.CCTVMonitoring.ppp[0].queue 	queueLength:max 	0
attr interpolationmode  sample-hold
attr title  "queue length, max"
scalar UniversityNetwork.CCTVMonitoring.ppp[0].queue 	queueLength:timeavg 	0
attr interpolationmode  sample-hold
attr title  "queue length, timeavg"
scalar UniversityNetwork.CCTVMonitoring.ppp[0].queue 	rcvdPk:count 	0
attr interpolationmode  none
attr title  "received packets, count"
scalar UniversityNetwork.CCTVMonitoring.ppp[0].queue 	rcvdPk:sum(packetBytes) 	0
attr interpolationmode  none
attr title  "received packets, sum(packetBytes)"
scalar UniversityNetwork.CCTVMonitoring.ppp[0].ppp 	rcvdPkFromHL:count 	0
attr interpolationmode  none
attr source  packetReceivedFromUpper
attr title  "packets received from higher layer, count"
scalar UniversityNetwork.CCTVMonitoring.ppp[0].ppp 	rcvdPkFromHL:sum(packetBytes) 	0
attr interpolationmode  none
attr source  packetReceivedFromUpper
attr title  "packets received from higher layer, sum(packetBytes)"
scalar UniversityNetwork.CCTVMonitoring.ppp[0].ppp 	passedUpPk:count 	37497
attr interpolationmode  none
attr source  packetSentToUpper
attr title  "packets passed to higher layer, count"
scalar UniversityNetwork.CCTVMonitoring.ppp[0].ppp 	passedUpPk:sum(packetBytes) 	125839932
attr interpolationmode  none
attr source  packetSentToUpper
attr title  "packets passed to higher layer, sum(packetBytes)"
scalar UniversityNetwork.CCTVMonitoring.ppp[0].ppp 	txPk:count 	0
attr interpolationmode  none
attr source  packetSentToLower
attr title  "packets transmitted, count"
scalar UniversityNetwork.CCTVMonitoring.ppp[0].ppp 	txPk:sum(packetBytes) 	0
attr interpolationmode  none
attr source  packetSentToLower
attr title  "packets transmitted, sum(packetBytes)"
scalar UniversityNetwork.CCTVMonitoring.ppp[0].ppp 	droppedPkBitError:count 	0
attr interpolationmode  none
attr source  dropPkBitError
attr title  "packets dropped/bit error, count"
scalar UniversityNetwork.CCTVMonitoring.ppp[0].ppp 	droppedPkBitError:sum(packetBytes) 	0
attr interpolationmode  none
attr source  dropPkBitError
attr title  "packets dropped/bit error, sum(packetBytes)"
scalar UniversityNetwork.CCTVMonitoring.ppp[0].ppp 	droppedPkIfaceDown:count 	0
attr interpolationmode  none
attr source  dropPkIfaceDown
attr title  "packets dropped/interface down, count"
scalar UniversityNetwork.CCTVMonitoring.ppp[0].ppp 	droppedPkIfaceDown:sum(packetBytes) 	0
attr interpolationmode  none
attr source  dropPkIfaceDown
attr title  "packets dropped/interface down, sum(packetBytes)"
scalar UniversityNetwork.CCTVMonitoring.ppp[0].ppp 	rxPkOk:count 	37497
attr interpolationmode  none
attr source  rxPkOk
attr title  "packets received OK, count"
scalar UniversityNetwork.CCTVMonitoring.ppp[0].ppp 	rxPkOk:sum(packetBytes) 	126102411
attr interpolationmode  none
attr source  rxPkOk
attr title  "packets received OK, sum(packetBytes)"
scalar UniversityNetwork.CCTVMonitoring.ppp[0].ppp 	txState:timeavg 	0
attr interpolationmode  sample-hold
attr title  "tx state, timeavg"
scalar UniversityNetwork.CCTVMonitoring.udpApp[0] 	rcvdPk:count 	12499
attr interpolationmode  none
attr source  rcvdPk
attr title  "packets received, count"
scalar UniversityNetwork.CCTVMonitoring.udpApp[0] 	rcvdPk:sum(packetBytes) 	124990000
attr interpolationmode  none
attr source  rcvdPk
attr title  "packets received, sum(packetBytes)"
statistic UniversityNetwork.CCTVMonitoring.udpApp[0] 	endToEndDelay:histogram
field count 12499
field mean 0.017593762097347
field stddev 0.00061668865097377
field sum 219.90443245474
field sqrsum 3.8736993193039
field min 0.017175219999
field max 0.032062099206
attr interpolationmode  none
attr source  messageAge(rcvdPk)
attr title  "end-to-end delay, histogram"
attr unit  s
bin	-INF	0
bin	0.0162667064745	0
bin	0.0163878416111	0
bin	0.0165089767477	0
bin	0.0166301118843	0
bin	0.0167512470209	0
bin	0.0168723821575	0
bin	0.0169935172941	0
bin	0.0171146524307	7661
bin	0.0172357875673	90
bin	0.0173569227039	82
bin	0.0174780578405	88
bin	0.0175991929771	87
bin	0.0177203281137	89
bin	0.0178414632503	94
bin	0.0179625983869	132
bin	0.0180837335235	3138
bin	0.0182048686601	86
bin	0.0183260037967	127
bin	0.0184471389333	129
bin	0.0185682740699	141
bin	0.0186894092065	112
bin	0.0188105443431	137
bin	0.0189316794797	92
bin	0.0190528146163	34
bin	0.0191739497529	30
bin	0.0192950848895	42
bin	0.0194162200261	16
bin	0.0195373551627	16
bin	0.0196584902993	14
bin	0.0197796254359	5
bin	0.0199007605725	57
scalar UniversityNetwork.CCTVMonitoring.udp 	droppedPkBadChecksum:count 	0
attr interpolationmode  none
attr title  "packets dropped (checksum error), count"
scalar UniversityNetwork.CCTVMonitoring.udp 	droppedPkWrongPort:count 	0
attr interpolationmode  none
attr title  "packets dropped (wrong port), count"
scalar UniversityNetwork.CCTVMonitoring.udp 	passedUpPk:count 	12499
attr interpolationmode  none
attr title  "packets passed up, count"
scalar UniversityNetwork.CCTVMonitoring.udp 	sentPk:count 	0
attr interpolationmode  none
attr source  sentPk
attr title  "packets sent, count"
scalar UniversityNetwork.CCTVMonitoring.udp 	sentPk:sum(packetBytes) 	0
attr interpolationmode  none
attr source  sentPk
attr title  "packets sent, sum(packetBytes)"
scalar UniversityNetwork.CCTVMonitoring.udp 	rcvdPk:count 	12499
attr interpolationmode  none
attr source  rcvdPk
attr title  "packets received, count"
scalar UniversityNetwork.CCTVMonitoring.udp 	rcvdPk:sum(packetBytes) 	125089992
attr interpolationmode  none
attr source  rcvdPk
attr title  "packets received, sum(packetBytes)"
scalar UniversityNetwork.main.networkLayer.arp 	initiatedARPResolution:count 	0
attr title  "ARP initiated resolutions, count"
scalar UniversityNetwork.main.networkLayer.arp 	sentReply:count 	0
attr title  "ARP replies sent, count"
scalar UniversityNetwork.main.networkLayer.arp 	sentReq:count 	0
attr title  "ARP request sent, count"
scalar UniversityNetwork.main.networkLayer.arp 	failedARPResolution:count 	0
attr title  "ARP failed resolutions, count"
scalar UniversityNetwork.main.networkLayer.arp 	completedARPResolution:count 	0
attr title  "ARP completed resolutions, count"
scalar UniversityNetwork.main.lo0.lo 	rcvdPkFromHL:count 	0
attr interpolationmode  none
attr source  packetReceivedFromUpper
attr title  "packets received from higher layer, count"
scalar UniversityNetwork.main.lo0.lo 	rcvdPkFromHL:sum(packetBytes) 	0
attr interpolationmode  none
attr source  packetReceivedFromUpper
attr title  "packets received from higher layer, sum(packetBytes)"
scalar UniversityNetwork.main.lo0.lo 	passedUpPk:count 	0
attr interpolationmode  none
attr source  packetSentToUpper
attr title  "packets passed to higher layer, count"
scalar UniversityNetwork.main.lo0.lo 	passedUpPk:sum(packetBytes) 	0
attr interpolationmode  none
attr source  packetSentToUpper
attr title  "packets passed to higher layer, sum(packetBytes)"
scalar UniversityNetwork.main.lo0.lo 	droppedPkBitError:count 	0
attr interpolationmode  none
attr source  dropPkBitError
attr title  "packets dropped/bit error, count"
scalar UniversityNetwork.main.lo0.lo 	droppedPkBitError:sum(packetBytes) 	0
attr interpolationmode  none
attr source  dropPkBitError
attr title  "packets dropped/bit error, sum(packetBytes)"
scalar UniversityNetwork.main.ppp[0].inputHook[0] 	duration 	500
scalar UniversityNetwork.main.ppp[0].inputHook[0] 	"total packets" 	501301
scalar UniversityNetwork.main.ppp[0].inputHook[0] 	"total bits" 	2151705712
scalar UniversityNetwork.main.ppp[0].inputHook[0] 	"avg throughput (bit/s)" 	4303411.424
scalar UniversityNetwork.main.ppp[0].inputHook[0] 	"avg packets/s" 	1002.602
statistic UniversityNetwork.main.ppp[0].queue 	queueingTime:histogram
field count 474395
field mean 0.0092716355083603
field stddev 0.010652596415603
field sum 4398.4175269886
field sqrsum 94.613716507742
field min 0
field max 0.04018639976
attr interpolationmode  none
attr title  "queueing time, histogram"
bin	-INF	0
bin	-0.0015900321385	0
bin	-0.0013780278533667	0
bin	-0.0011660235682333	0
bin	-0.0009540192831	0
bin	-0.00074201499796667	0
bin	-0.00053001071283333	0
bin	-0.0003180064277	0
bin	-0.00010600214256667	83901
bin	0.00010600214256667	5960
bin	0.0003180064277	4339
bin	0.00053001071283333	5370
bin	0.00074201499796667	18273
bin	0.0009540192831	10051
bin	0.0011660235682333	4315
bin	0.0013780278533667	4583
bin	0.0015900321385	9051
bin	0.0018020364236333	6701
bin	0.0020140407087667	5042
bin	0.0022260449939	3820
bin	0.0024380492790333	3912
bin	0.0026500535641667	8600
bin	0.0028620578493	5444
bin	0.0030740621344333	4142
bin	0.0032860664195667	3993
bin	0.0034980707047	7349
bin	0.0037100749898333	4775
bin	0.0039220792749667	4669
bin	0.0041340835601	4279
bin	0.0043460878452333	7027
bin	0.0045580921303667	4871
bin	0.0047700964155	253928
scalar UniversityNetwork.main.ppp[0].queue 	dropPk:count 	8102
attr interpolationmode  none
attr source  dropPkByQueue
attr title  "dropped packets, count"
scalar UniversityNetwork.main.ppp[0].queue 	dropPk:sum(packetBytes) 	12014026
attr interpolationmode  none
attr source  dropPkByQueue
attr title  "dropped packets, sum(packetBytes)"
scalar UniversityNetwork.main.ppp[0].queue 	queueLength:max 	40
attr interpolationmode  sample-hold
attr title  "queue length, max"
scalar UniversityNetwork.main.ppp[0].queue 	queueLength:timeavg 	8.7968510120508
attr interpolationmode  sample-hold
attr title  "queue length, timeavg"
scalar UniversityNetwork.main.ppp[0].queue 	rcvdPk:count 	482501
attr interpolationmode  none
attr title  "received packets, count"
scalar UniversityNetwork.main.ppp[0].queue 	rcvdPk:sum(packetBytes) 	605550331
attr interpolationmode  none
attr title  "received packets, sum(packetBytes)"
scalar UniversityNetwork.main.ppp[0].ppp 	rcvdPkFromHL:count 	474395
attr interpolationmode  none
attr source  packetReceivedFromUpper
attr title  "packets received from higher layer, count"
scalar UniversityNetwork.main.ppp[0].ppp 	rcvdPkFromHL:sum(packetBytes) 	593530305
attr interpolationmode  none
attr source  packetReceivedFromUpper
attr title  "packets received from higher layer, sum(packetBytes)"
scalar UniversityNetwork.main.ppp[0].ppp 	passedUpPk:count 	501301
attr interpolationmode  none
attr source  packetSentToUpper
attr title  "packets passed to higher layer, count"
scalar UniversityNetwork.main.ppp[0].ppp 	passedUpPk:sum(packetBytes) 	268963214
attr interpolationmode  none
attr source  packetSentToUpper
attr title  "packets passed to higher layer, sum(packetBytes)"
scalar UniversityNetwork.main.ppp[0].ppp 	txPk:count 	474395
attr interpolationmode  none
attr source  packetSentToLower
attr title  "packets transmitted, count"
scalar UniversityNetwork.main.ppp[0].ppp 	txPk:sum(packetBytes) 	596851070
attr interpolationmode  none
attr source  packetSentToLower
attr title  "packets transmitted, sum(packetBytes)"
scalar UniversityNetwork.main.ppp[0].ppp 	droppedPkBitError:count 	0
attr interpolationmode  none
attr source  dropPkBitError
attr title  "packets dropped/bit error, count"
scalar UniversityNetwork.main.ppp[0].ppp 	droppedPkBitError:sum(packetBytes) 	0
attr interpolationmode  none
attr source  dropPkBitError
attr title  "packets dropped/bit error, sum(packetBytes)"
scalar UniversityNetwork.main.ppp[0].ppp 	droppedPkIfaceDown:count 	0
attr interpolationmode  none
attr source  dropPkIfaceDown
attr title  "packets dropped/interface down, count"
scalar UniversityNetwork.main.ppp[0].ppp 	droppedPkIfaceDown:sum(packetBytes) 	0
attr interpolationmode  none
attr source  dropPkIfaceDown
attr title  "packets dropped/interface down, sum(packetBytes)"
scalar UniversityNetwork.main.ppp[0].ppp 	rxPkOk:count 	501301
attr interpolationmode  none
attr source  rxPkOk
attr title  "packets received OK, count"
scalar UniversityNetwork.main.ppp[0].ppp 	rxPkOk:sum(packetBytes) 	272472321
attr interpolationmode  none
attr source  rxPkOk
attr title  "packets received OK, sum(packetBytes)"
scalar UniversityNetwork.main.ppp[0].ppp 	txState:timeavg 	0.79580137765379
attr interpolationmode  sample-hold
attr title  "tx state, timeavg"
scalar UniversityNetwork.main.ppp[1].inputHook[0] 	duration 	500
scalar UniversityNetwork.main.ppp[1].inputHook[0] 	"total packets" 	0
scalar UniversityNetwork.main.ppp[1].inputHook[0] 	"total bits" 	0
scalar UniversityNetwork.main.ppp[1].inputHook[0] 	"avg throughput (bit/s)" 	0
scalar UniversityNetwork.main.ppp[1].inputHook[0] 	"avg packets/s" 	0
statistic UniversityNetwork.main.ppp[1].queue 	queueingTime:histogram
field count 37497
field mean 0
field stddev 0
field sum 0
field sqrsum 0
field min 0
field max 0
attr interpolationmode  none
attr title  "queueing time, histogram"
bin	-INF	0
bin	-0.5	0
bin	-0.46666666666667	0
bin	-0.43333333333333	0
bin	-0.4	0
bin	-0.36666666666667	0
bin	-0.33333333333333	0
bin	-0.3	0
bin	-0.26666666666667	0
bin	-0.23333333333333	0
bin	-0.2	0
bin	-0.16666666666667	0
bin	-0.13333333333333	0
bin	-0.1	0
bin	-0.066666666666667	0
bin	-0.033333333333333	0
bin	0	37497
bin	0.033333333333333	0
bin	0.066666666666667	0
bin	0.1	0
bin	0.13333333333333	0
bin	0.16666666666667	0
bin	0.2	0
bin	0.23333333333333	0
bin	0.26666666666667	0
bin	0.3	0
bin	0.33333333333333	0
bin	0.36666666666667	0
bin	0.4	0
bin	0.43333333333333	0
bin	0.46666666666667	0
bin	0.5	0
scalar UniversityNetwork.main.ppp[1].queue 	dropPk:count 	0
attr interpolationmode  none
attr source  dropPkByQueue
attr title  "dropped packets, count"
scalar UniversityNetwork.main.ppp[1].queue 	dropPk:sum(packetBytes) 	0
attr interpolationmode  none
attr source  dropPkByQueue
attr title  "dropped packets, sum(packetBytes)"
scalar UniversityNetwork.main.ppp[1].queue 	queueLength:max 	0
attr interpolationmode  sample-hold
attr title  "queue length, max"
scalar UniversityNetwork.main.ppp[1].queue 	queueLength:timeavg 	0
attr interpolationmode  sample-hold
attr title  "queue length, timeavg"
scalar UniversityNetwork.main.ppp[1].queue 	rcvdPk:count 	37497
attr interpolationmode  none
attr title  "received packets, count"
scalar UniversityNetwork.main.ppp[1].queue 	rcvdPk:sum(packetBytes) 	125839932
attr interpolationmode  none
attr title  "received packets, sum(packetBytes)"
scalar UniversityNetwork.main.ppp[1].ppp 	rcvdPkFromHL:count 	37497
attr interpolationmode  none
attr source  packetReceivedFromUpper
attr title  "packets received from higher layer, count"
scalar UniversityNetwork.main.ppp[1].ppp 	rcvdPkFromHL:sum(packetBytes) 	125839932
attr interpolationmode  none
attr source  packetReceivedFromUpper
attr title  "packets received from higher layer, sum(packetBytes)"
scalar UniversityNetwork.main.ppp[1].ppp 	passedUpPk:count 	0
attr interpolationmode  none
attr source  packetSentToUpper
attr title  "packets passed to higher layer, count"
scalar UniversityNetwork.main.ppp[1].ppp 	passedUpPk:sum(packetBytes) 	0
attr interpolationmode  none
attr source  packetSentToUpper
attr title  "packets passed to higher layer, sum(packetBytes)"
scalar UniversityNetwork.main.ppp[1].ppp 	txPk:count 	37497
attr interpolationmode  none
attr source  packetSentToLower
attr title  "packets transmitted, count"
scalar UniversityNetwork.main.ppp[1].ppp 	txPk:sum(packetBytes) 	126102411
attr interpolationmode  none
attr source  packetSentToLower
attr title  "packets transmitted, sum(packetBytes)"
scalar UniversityNetwork.main.ppp[1].ppp 	droppedPkBitError:count 	0
attr interpolationmode  none
attr source  dropPkBitError
attr title  "packets dropped/bit error, count"
scalar UniversityNetwork.main.ppp[1].ppp 	droppedPkBitError:sum(packetBytes) 	0
attr interpolationmode  none
attr source  dropPkBitError
attr title  "packets dropped/bit error, sum(packetBytes)"
scalar UniversityNetwork.main.ppp[1].ppp 	droppedPkIfaceDown:count 	0
attr interpolationmode  none
attr source  dropPkIfaceDown
attr title  "packets dropped/interface down, count"
scalar UniversityNetwork.main.ppp[1].ppp 	droppedPkIfaceDown:sum(packetBytes) 	0
attr interpolationmode  none
attr source  dropPkIfaceDown
attr title  "packets dropped/interface down, sum(packetBytes)"
scalar UniversityNetwork.main.ppp[1].ppp 	rxPkOk:count 	0
attr interpolationmode  none
attr source  rxPkOk
attr title  "packets received OK, count"
scalar UniversityNetwork.main.ppp[1].ppp 	rxPkOk:sum(packetBytes) 	0
attr interpolationmode  none
attr source  rxPkOk
attr title  "packets received OK, sum(packetBytes)"
scalar UniversityNetwork.main.ppp[1].ppp 	txState:timeavg 	0.020176385760006
attr interpolationmode  sample-hold
attr title  "tx state, timeavg"
scalar UniversityNetwork.main.ppp[2].inputHook[0] 	duration 	500
scalar UniversityNetwork.main.ppp[2].inputHook[0] 	"total packets" 	470002
scalar UniversityNetwork.main.ppp[2].inputHook[0] 	"total bits" 	4701614072
scalar UniversityNetwork.main.ppp[2].inputHook[0] 	"avg throughput (bit/s)" 	9403228.144
scalar UniversityNetwork.main.ppp[2].inputHook[0] 	"avg packets/s" 	940.004
statistic UniversityNetwork.main.ppp[2].queue 	queueingTime:histogram
field count 451305
field mean 5.8602008815487e-06
field stddev 2.1489316851627e-05
field sum 2.6447379588474
field sqrsum 0.00022390670327857
field min 0
field max 8.9226667e-05
attr interpolationmode  none
attr title  "queueing time, histogram"
bin	-INF	0
bin	-1.62133335e-05	0
bin	-1.40515557e-05	0
bin	-1.18897779e-05	0
bin	-9.7280001e-06	0
bin	-7.5662223e-06	0
bin	-5.4044445e-06	0
bin	-3.2426667e-06	0
bin	-1.0808889e-06	417982
bin	1.0808889e-06	33
bin	3.2426667e-06	116
bin	5.4044445e-06	877
bin	7.5662223e-06	26
bin	9.7280001e-06	17
bin	1.18897779e-05	7
bin	1.40515557e-05	9
bin	1.62133335e-05	9
bin	1.83751113e-05	12
bin	2.05368891e-05	6
bin	2.26986669e-05	17
bin	2.48604447e-05	9
bin	2.70222225e-05	17
bin	2.91840003e-05	28
bin	3.13457781e-05	229
bin	3.35075559e-05	1699
bin	3.56693337e-05	2
bin	3.78311115e-05	9
bin	3.99928893e-05	2
bin	4.21546671e-05	7
bin	4.43164449e-05	4
bin	4.64782227e-05	6
bin	4.86400005e-05	30182
scalar UniversityNetwork.main.ppp[2].queue 	dropPk:count 	0
attr interpolationmode  none
attr source  dropPkByQueue
attr title  "dropped packets, count"
scalar UniversityNetwork.main.ppp[2].queue 	dropPk:sum(packetBytes) 	0
attr interpolationmode  none
attr source  dropPkByQueue
attr title  "dropped packets, sum(packetBytes)"
scalar UniversityNetwork.main.ppp[2].queue 	queueLength:max 	3
attr interpolationmode  sample-hold
attr title  "queue length, max"
scalar UniversityNetwork.main.ppp[2].queue 	queueLength:timeavg 	0.0052894759176954
attr interpolationmode  sample-hold
attr title  "queue length, timeavg"
scalar UniversityNetwork.main.ppp[2].queue 	rcvdPk:count 	451305
attr interpolationmode  none
attr title  "received packets, count"
scalar UniversityNetwork.main.ppp[2].queue 	rcvdPk:sum(packetBytes) 	125274710
attr interpolationmode  none
attr title  "received packets, sum(packetBytes)"
scalar UniversityNetwork.main.ppp[2].ppp 	rcvdPkFromHL:count 	451305
attr interpolationmode  none
attr source  packetReceivedFromUpper
attr title  "packets received from higher layer, count"
scalar UniversityNetwork.main.ppp[2].ppp 	rcvdPkFromHL:sum(packetBytes) 	125274710
attr interpolationmode  none
attr source  packetReceivedFromUpper
attr title  "packets received from higher layer, sum(packetBytes)"
scalar UniversityNetwork.main.ppp[2].ppp 	passedUpPk:count 	470002
attr interpolationmode  none
attr source  packetSentToUpper
attr title  "packets passed to higher layer, count"
scalar UniversityNetwork.main.ppp[2].ppp 	passedUpPk:sum(packetBytes) 	587701759
attr interpolationmode  none
attr source  packetSentToUpper
attr title  "packets passed to higher layer, sum(packetBytes)"
scalar UniversityNetwork.main.ppp[2].ppp 	txPk:count 	451305
attr interpolationmode  none
attr source  packetSentToLower
attr title  "packets transmitted, count"
scalar UniversityNetwork.main.ppp[2].ppp 	txPk:sum(packetBytes) 	128433845
attr interpolationmode  none
attr source  packetSentToLower
attr title  "packets transmitted, sum(packetBytes)"
scalar UniversityNetwork.main.ppp[2].ppp 	droppedPkBitError:count 	0
attr interpolationmode  none
attr source  dropPkBitError
attr title  "packets dropped/bit error, count"
scalar UniversityNetwork.main.ppp[2].ppp 	droppedPkBitError:sum(packetBytes) 	0
attr interpolationmode  none
attr source  dropPkBitError
attr title  "packets dropped/bit error, sum(packetBytes)"
scalar UniversityNetwork.main.ppp[2].ppp 	droppedPkIfaceDown:count 	0
attr interpolationmode  none
attr source  dropPkIfaceDown
attr title  "packets dropped/interface down, count"
scalar UniversityNetwork.main.ppp[2].ppp 	droppedPkIfaceDown:sum(packetBytes) 	0
attr interpolationmode  none
attr source  dropPkIfaceDown
attr title  "packets dropped/interface down, sum(packetBytes)"
scalar UniversityNetwork.main.ppp[2].ppp 	rxPkOk:count 	470002
attr interpolationmode  none
attr source  rxPkOk
attr title  "packets received OK, count"
scalar UniversityNetwork.main.ppp[2].ppp 	rxPkOk:sum(packetBytes) 	590991773
attr interpolationmode  none
attr source  rxPkOk
attr title  "packets received OK, sum(packetBytes)"
scalar UniversityNetwork.main.ppp[2].ppp 	txState:timeavg 	0.020549415200085
attr interpolationmode  sample-hold
attr title  "tx state, timeavg"
scalar UniversityNetwork.main.ppp[3].inputHook[0] 	duration 	500
scalar UniversityNetwork.main.ppp[3].inputHook[0] 	"total packets" 	12499
scalar UniversityNetwork.main.ppp[3].inputHook[0] 	"total bits" 	142788576
scalar UniversityNetwork.main.ppp[3].inputHook[0] 	"avg throughput (bit/s)" 	285577.152
scalar UniversityNetwork.main.ppp[3].inputHook[0] 	"avg packets/s" 	24.998
statistic UniversityNetwork.main.ppp[3].queue 	queueingTime:histogram
field count 12499
field mean 0
field stddev 0
field sum 0
field sqrsum 0
field min 0
field max 0
attr interpolationmode  none
attr title  "queueing time, histogram"
bin	-INF	0
bin	-0.5	0
bin	-0.46666666666667	0
bin	-0.43333333333333	0
bin	-0.4	0
bin	-0.36666666666667	0
bin	-0.33333333333333	0
bin	-0.3	0
bin	-0.26666666666667	0
bin	-0.23333333333333	0
bin	-0.2	0
bin	-0.16666666666667	0
bin	-0.13333333333333	0
bin	-0.1	0
bin	-0.066666666666667	0
bin	-0.033333333333333	0
bin	0	12499
bin	0.033333333333333	0
bin	0.066666666666667	0
bin	0.1	0
bin	0.13333333333333	0
bin	0.16666666666667	0
bin	0.2	0
bin	0.23333333333333	0
bin	0.26666666666667	0
bin	0.3	0
bin	0.33333333333333	0
bin	0.36666666666667	0
bin	0.4	0
bin	0.43333333333333	0
bin	0.46666666666667	0
bin	0.5	0
scalar UniversityNetwork.main.ppp[3].queue 	dropPk:count 	0
attr interpolationmode  none
attr source  dropPkByQueue
attr title  "dropped packets, count"
scalar UniversityNetwork.main.ppp[3].queue 	dropPk:sum(packetBytes) 	0
attr interpolationmode  none
attr source  dropPkByQueue
attr title  "dropped packets, sum(packetBytes)"
scalar UniversityNetwork.main.ppp[3].queue 	queueLength:max 	0
attr interpolationmode  sample-hold
attr title  "queue length, max"
scalar UniversityNetwork.main.ppp[3].queue 	queueLength:timeavg 	0
attr interpolationmode  sample-hold
attr title  "queue length, timeavg"
scalar UniversityNetwork.main.ppp[3].queue 	rcvdPk:count 	12499
attr interpolationmode  none
attr title  "received packets, count"
scalar UniversityNetwork.main.ppp[3].queue 	rcvdPk:sum(packetBytes) 	17848572
attr interpolationmode  none
attr title  "received packets, sum(packetBytes)"
scalar UniversityNetwork.main.ppp[3].ppp 	rcvdPkFromHL:count 	12499
attr interpolationmode  none
attr source  packetReceivedFromUpper
attr title  "packets received from higher layer, count"
scalar UniversityNetwork.main.ppp[3].ppp 	rcvdPkFromHL:sum(packetBytes) 	17848572
attr interpolationmode  none
attr source  packetReceivedFromUpper
attr title  "packets received from higher layer, sum(packetBytes)"
scalar UniversityNetwork.main.ppp[3].ppp 	passedUpPk:count 	12499
attr interpolationmode  none
attr source  packetSentToUpper
attr title  "packets passed to higher layer, count"
scalar UniversityNetwork.main.ppp[3].ppp 	passedUpPk:sum(packetBytes) 	17848572
attr interpolationmode  none
attr source  packetSentToUpper
attr title  "packets passed to higher layer, sum(packetBytes)"
scalar UniversityNetwork.main.ppp[3].ppp 	txPk:count 	12499
attr interpolationmode  none
attr source  packetSentToLower
attr title  "packets transmitted, count"
scalar UniversityNetwork.main.ppp[3].ppp 	txPk:sum(packetBytes) 	17936065
attr interpolationmode  none
attr source  packetSentToLower
attr title  "packets transmitted, sum(packetBytes)"
scalar UniversityNetwork.main.ppp[3].ppp 	droppedPkBitError:count 	0
attr interpolationmode  none
attr source  dropPkBitError
attr title  "packets dropped/bit error, count"
scalar UniversityNetwork.main.ppp[3].ppp 	droppedPkBitError:sum(packetBytes) 	0
attr interpolationmode  none
attr source  dropPkBitError
attr title  "packets dropped/bit error, sum(packetBytes)"
scalar UniversityNetwork.main.ppp[3].ppp 	droppedPkIfaceDown:count 	0
attr interpolationmode  none
attr source  dropPkIfaceDown
attr title  "packets dropped/interface down, count"
scalar UniversityNetwork.main.ppp[3].ppp 	droppedPkIfaceDown:sum(packetBytes) 	0
attr interpolationmode  none
attr source  dropPkIfaceDown
attr title  "packets dropped/interface down, sum(packetBytes)"
scalar UniversityNetwork.main.ppp[3].ppp 	rxPkOk:count 	12499
attr interpolationmode  none
attr source  rxPkOk
attr title  "packets received OK, count"
scalar UniversityNetwork.main.ppp[3].ppp 	rxPkOk:sum(packetBytes) 	17936065
attr interpolationmode  none
attr source  rxPkOk
attr title  "packets received OK, sum(packetBytes)"
scalar UniversityNetwork.main.ppp[3].ppp 	txState:timeavg 	0.0028697703999996
attr interpolationmode  sample-hold
attr title  "tx state, timeavg"
scalar UniversityNetwork.remote.networkLayer.arp 	initiatedARPResolution:count 	48
attr title  "ARP initiated resolutions, count"
scalar UniversityNetwork.remote.networkLayer.arp 	sentReply:count 	256
attr title  "ARP replies sent, count"
scalar UniversityNetwork.remote.networkLayer.arp 	sentReq:count 	51
attr title  "ARP request sent, count"
scalar UniversityNetwork.remote.networkLayer.arp 	failedARPResolution:count 	0
attr title  "ARP failed resolutions, count"
scalar UniversityNetwork.remote.networkLayer.arp 	completedARPResolution:count 	303
attr title  "ARP completed resolutions, count"
scalar UniversityNetwork.remote.lo0.lo 	rcvdPkFromHL:count 	0
attr interpolationmode  none
attr source  packetReceivedFromUpper
attr title  "packets received from higher layer, count"
scalar UniversityNetwork.remote.lo0.lo 	rcvdPkFromHL:sum(packetBytes) 	0
attr interpolationmode  none
attr source  packetReceivedFromUpper
attr title  "packets received from higher layer, sum(packetBytes)"
scalar UniversityNetwork.remote.lo0.lo 	passedUpPk:count 	0
attr interpolationmode  none
attr source  packetSentToUpper
attr title  "packets passed to higher layer, count"
scalar UniversityNetwork.remote.lo0.lo 	passedUpPk:sum(packetBytes) 	0
attr interpolationmode  none
attr source  packetSentToUpper
attr title  "packets passed to higher layer, sum(packetBytes)"
scalar UniversityNetwork.remote.lo0.lo 	droppedPkBitError:count 	0
attr interpolationmode  none
attr source  dropPkBitError
attr title  "packets dropped/bit error, count"
scalar UniversityNetwork.remote.lo0.lo 	droppedPkBitError:sum(packetBytes) 	0
attr interpolationmode  none
attr source  dropPkBitError
attr title  "packets dropped/bit error, sum(packetBytes)"
scalar UniversityNetwork.remote.eth[0].mac 	"simulated time" 	500
scalar UniversityNetwork.remote.eth[0].mac 	full-duplex 	1
scalar UniversityNetwork.remote.eth[0].mac 	"frames/sec sent" 	949.382
scalar UniversityNetwork.remote.eth[0].mac 	"frames/sec rcvd" 	928.232
scalar UniversityNetwork.remote.eth[0].mac 	"bits/sec sent" 	9640480.432
scalar UniversityNetwork.remote.eth[0].mac 	"bits/sec rcvd" 	2435061.584
scalar UniversityNetwork.remote.eth[0].mac 	"rx channel idle (%)" 	97.505531568
scalar UniversityNetwork.remote.eth[0].mac 	"rx channel utilization (%)" 	2.494468432
scalar UniversityNetwork.remote.eth[0].mac 	rxPkFromHL:count 	474692
attr interpolationmode  none
attr source  rxPkFromHL
attr title  "packet bytes from higher layer, count"
scalar UniversityNetwork.remote.eth[0].mac 	rxPkFromHL:sum(packetBytes) 	602531545
attr interpolationmode  none
attr source  rxPkFromHL
attr title  "packet bytes from higher layer, sum(packetBytes)"
scalar UniversityNetwork.remote.eth[0].mac 	rxPausePkUnits:count 	0
attr interpolationmode  none
attr title  "pause units received, count"
scalar UniversityNetwork.remote.eth[0].mac 	rxPausePkUnits:sum 	0
attr interpolationmode  none
attr title  "pause units received, sum"
scalar UniversityNetwork.remote.eth[0].mac 	txPausePkUnits:count 	0
attr interpolationmode  none
attr title  "pause units sent, count"
scalar UniversityNetwork.remote.eth[0].mac 	txPausePkUnits:sum 	0
attr interpolationmode  none
attr title  "pause units sent, sum"
scalar UniversityNetwork.remote.eth[0].mac 	txPk:count 	474691
attr interpolationmode  none
attr source  txPk
attr title  "packets transmitted, count"
scalar UniversityNetwork.remote.eth[0].mac 	txPk:sum(packetBytes) 	602530027
attr interpolationmode  none
attr source  txPk
attr title  "packets transmitted, sum(packetBytes)"
scalar UniversityNetwork.remote.eth[0].mac 	droppedPkNotForUs:count 	0
attr interpolationmode  none
attr source  dropPkNotForUs
attr title  "packets dropped/not for us, count"
scalar UniversityNetwork.remote.eth[0].mac 	droppedPkNotForUs:sum(packetBytes) 	0
attr interpolationmode  none
attr source  dropPkNotForUs
attr title  "packets dropped/not for us, sum(packetBytes)"
scalar UniversityNetwork.remote.eth[0].mac 	passedUpPk:count 	464116
attr interpolationmode  none
attr source  packetSentToUpper
attr title  "packets passed to higher layer, count"
scalar UniversityNetwork.remote.eth[0].mac 	passedUpPk:sum(packetBytes) 	152191349
attr interpolationmode  none
attr source  packetSentToUpper
attr title  "packets passed to higher layer, sum(packetBytes)"
scalar UniversityNetwork.remote.eth[0].mac 	droppedPkBitError:count 	0
attr interpolationmode  none
attr source  dropPkBitError
attr title  "packets dropped/bit error, count"
scalar UniversityNetwork.remote.eth[0].mac 	droppedPkBitError:sum(packetBytes) 	0
attr interpolationmode  none
attr source  dropPkBitError
attr title  "packets dropped/bit error, sum(packetBytes)"
scalar UniversityNetwork.remote.eth[0].mac 	droppedPkIfaceDown:count 	0
attr interpolationmode  none
attr source  dropPkIfaceDown
attr title  "packets dropped/interface down, count"
scalar UniversityNetwork.remote.eth[0].mac 	droppedPkIfaceDown:sum(packetBytes) 	0
attr interpolationmode  none
attr source  dropPkIfaceDown
attr title  "packets dropped/interface down, sum(packetBytes)"
scalar UniversityNetwork.remote.eth[0].mac 	rxPkOk:count 	464116
attr interpolationmode  none
attr source  rxPkOk
attr title  "packets received OK, count"
scalar UniversityNetwork.remote.eth[0].mac 	rxPkOk:sum(packetBytes) 	152191349
attr interpolationmode  none
attr source  rxPkOk
attr title  "packets received OK, sum(packetBytes)"
scalar UniversityNetwork.remote.eth[0].encap 	pauseSent:count 	0
attr title  "pause sent, count"
scalar UniversityNetwork.remote.eth[0].encap 	pauseSent:sum 	0
attr title  "pause sent, sum"
scalar UniversityNetwork.remote.eth[0].encap 	decapPk:count 	464116
attr interpolationmode  none
attr source  decapPk
attr title  "packets decapsulated, count"
scalar UniversityNetwork.remote.eth[0].encap 	decapPk:sum(packetBytes) 	143132126
attr interpolationmode  none
attr source  decapPk
attr title  "packets decapsulated, sum(packetBytes)"
scalar UniversityNetwork.remote.eth[0].encap 	encapPk:count 	474692
attr interpolationmode  none
attr source  encapPk
attr title  "packets encapsulated, count"
scalar UniversityNetwork.remote.eth[0].encap 	encapPk:sum(packetBytes) 	593523901
attr interpolationmode  none
attr source  encapPk
attr title  "packets encapsulated, sum(packetBytes)"
scalar UniversityNetwork.remote.ppp[0].inputHook[0] 	duration 	500
scalar UniversityNetwork.remote.ppp[0].inputHook[0] 	"total packets" 	474385
scalar UniversityNetwork.remote.ppp[0].inputHook[0] 	"total bits" 	4748122440
scalar UniversityNetwork.remote.ppp[0].inputHook[0] 	"avg throughput (bit/s)" 	9496244.88
scalar UniversityNetwork.remote.ppp[0].inputHook[0] 	"avg packets/s" 	948.77
statistic UniversityNetwork.remote.ppp[0].queue 	queueingTime:histogram
field count 501310
field mean 0.0011859367012115
field stddev 0.0020829485360046
field sum 594.52192768436
field sqrsum 2.8800820005939
field min 0
field max 0.02120718026
attr interpolationmode  none
attr title  "queueing time, histogram"
bin	-INF	0
bin	-0.002764572937	0
bin	-0.0023959632120667	0
bin	-0.0020273534871333	0
bin	-0.0016587437622	0
bin	-0.0012901340372667	0
bin	-0.00092152431233333	0
bin	-0.0005529145874	0
bin	-0.00018430486246667	331197
bin	0.00018430486246667	17897
bin	0.0005529145874	11846
bin	0.00092152431233333	7832
bin	0.0012901340372667	6794
bin	0.0016587437622	6088
bin	0.0020273534871333	6023
bin	0.0023959632120667	16059
bin	0.002764572937	9492
bin	0.0031331826619333	6869
bin	0.0035017923868667	9095
bin	0.0038704021118	6540
bin	0.0042390118367333	6641
bin	0.0046076215616667	6495
bin	0.0049762312866	7133
bin	0.0053448410115333	15656
bin	0.0057134507364667	7715
bin	0.0060820604614	6334
bin	0.0064506701863333	7166
bin	0.0068192799112667	3033
bin	0.0071878896362	1906
bin	0.0075564993611333	1130
bin	0.0079251090860667	721
bin	0.008293718811	1648
scalar UniversityNetwork.remote.ppp[0].queue 	dropPk:count 	0
attr interpolationmode  none
attr source  dropPkByQueue
attr title  "dropped packets, count"
scalar UniversityNetwork.remote.ppp[0].queue 	dropPk:sum(packetBytes) 	0
attr interpolationmode  none
attr source  dropPkByQueue
attr title  "dropped packets, sum(packetBytes)"
scalar UniversityNetwork.remote.ppp[0].queue 	queueLength:max 	26
attr interpolationmode  sample-hold
attr title  "queue length, max"
scalar UniversityNetwork.remote.ppp[0].queue 	queueLength:timeavg 	1.1890438553692
attr interpolationmode  sample-hold
attr title  "queue length, timeavg"
scalar UniversityNetwork.remote.ppp[0].queue 	rcvdPk:count 	501310
attr interpolationmode  none
attr title  "received packets, count"
scalar UniversityNetwork.remote.ppp[0].queue 	rcvdPk:sum(packetBytes) 	268963574
attr interpolationmode  none
attr title  "received packets, sum(packetBytes)"
scalar UniversityNetwork.remote.ppp[0].ppp 	rcvdPkFromHL:count 	501310
attr interpolationmode  none
attr source  packetReceivedFromUpper
attr title  "packets received from higher layer, count"
scalar UniversityNetwork.remote.ppp[0].ppp 	rcvdPkFromHL:sum(packetBytes) 	268963574
attr interpolationmode  none
attr source  packetReceivedFromUpper
attr title  "packets received from higher layer, sum(packetBytes)"
scalar UniversityNetwork.remote.ppp[0].ppp 	passedUpPk:count 	474385
attr interpolationmode  none
attr source  packetSentToUpper
attr title  "packets passed to higher layer, count"
scalar UniversityNetwork.remote.ppp[0].ppp 	passedUpPk:sum(packetBytes) 	593515305
attr interpolationmode  none
attr source  packetSentToUpper
attr title  "packets passed to higher layer, sum(packetBytes)"
scalar UniversityNetwork.remote.ppp[0].ppp 	txPk:count 	501310
attr interpolationmode  none
attr source  packetSentToLower
attr title  "packets transmitted, count"
scalar UniversityNetwork.remote.ppp[0].ppp 	txPk:sum(packetBytes) 	272472744
attr interpolationmode  none
attr source  packetSentToLower
attr title  "packets transmitted, sum(packetBytes)"
scalar UniversityNetwork.remote.ppp[0].ppp 	droppedPkBitError:count 	0
attr interpolationmode  none
attr source  dropPkBitError
attr title  "packets dropped/bit error, count"
scalar UniversityNetwork.remote.ppp[0].ppp 	droppedPkBitError:sum(packetBytes) 	0
attr interpolationmode  none
attr source  dropPkBitError
attr title  "packets dropped/bit error, sum(packetBytes)"
scalar UniversityNetwork.remote.ppp[0].ppp 	droppedPkIfaceDown:count 	0
attr interpolationmode  none
attr source  dropPkIfaceDown
attr title  "packets dropped/interface down, count"
scalar UniversityNetwork.remote.ppp[0].ppp 	droppedPkIfaceDown:sum(packetBytes) 	0
attr interpolationmode  none
attr source  dropPkIfaceDown
attr title  "packets dropped/interface down, sum(packetBytes)"
scalar UniversityNetwork.remote.ppp[0].ppp 	rxPkOk:count 	474385
attr interpolationmode  none
attr source  rxPkOk
attr title  "packets received OK, count"
scalar UniversityNetwork.remote.ppp[0].ppp 	rxPkOk:sum(packetBytes) 	596836000
attr interpolationmode  none
attr source  rxPkOk
attr title  "packets received OK, sum(packetBytes)"
scalar UniversityNetwork.remote.ppp[0].ppp 	txState:timeavg 	0.36329699160758
attr interpolationmode  sample-hold
attr title  "tx state, timeavg"
scalar UniversityNetwork.remote.ppp[1].inputHook[0] 	duration 	500
scalar UniversityNetwork.remote.ppp[1].inputHook[0] 	"total packets" 	37497
scalar UniversityNetwork.remote.ppp[1].inputHook[0] 	"total bits" 	1006719456
scalar UniversityNetwork.remote.ppp[1].inputHook[0] 	"avg throughput (bit/s)" 	2013438.912
scalar UniversityNetwork.remote.ppp[1].inputHook[0] 	"avg packets/s" 	74.994
statistic UniversityNetwork.remote.ppp[1].queue 	queueingTime:histogram
field count 0
field mean -nan
field stddev -nan
field sum 0
field sqrsum 0
field min -nan
field max -nan
attr interpolationmode  none
attr title  "queueing time, histogram"
bin	-INF	0
bin	-0.5	0
bin	-0.46666666666667	0
bin	-0.43333333333333	0
bin	-0.4	0
bin	-0.36666666666667	0
bin	-0.33333333333333	0
bin	-0.3	0
bin	-0.26666666666667	0
bin	-0.23333333333333	0
bin	-0.2	0
bin	-0.16666666666667	0
bin	-0.13333333333333	0
bin	-0.1	0
bin	-0.066666666666667	0
bin	-0.033333333333333	0
bin	0	0
bin	0.033333333333333	0
bin	0.066666666666667	0
bin	0.1	0
bin	0.13333333333333	0
bin	0.16666666666667	0
bin	0.2	0
bin	0.23333333333333	0
bin	0.26666666666667	0
bin	0.3	0
bin	0.33333333333333	0
bin	0.36666666666667	0
bin	0.4	0
bin	0.43333333333333	0
bin	0.46666666666667	0
bin	0.5	0
scalar UniversityNetwork.remote.ppp[1].queue 	dropPk:count 	0
attr interpolationmode  none
attr source  dropPkByQueue
attr title  "dropped packets, count"
scalar UniversityNetwork.remote.ppp[1].queue 	dropPk:sum(packetBytes) 	0
attr interpolationmode  none
attr source  dropPkByQueue
attr title  "dropped packets, sum(packetBytes)"
scalar UniversityNetwork.remote.ppp[1].queue 	queueLength:max 	0
attr interpolationmode  sample-hold
attr title  "queue length, max"
scalar UniversityNetwork.remote.ppp[1].queue 	queueLength:timeavg 	0
attr interpolationmode  sample-hold
attr title  "queue length, timeavg"
scalar UniversityNetwork.remote.ppp[1].queue 	rcvdPk:count 	0
attr interpolationmode  none
attr title  "received packets, count"
scalar UniversityNetwork.remote.ppp[1].queue 	rcvdPk:sum(packetBytes) 	0
attr interpolationmode  none
attr title  "received packets, sum(packetBytes)"
scalar UniversityNetwork.remote.ppp[1].ppp 	rcvdPkFromHL:count 	0
attr interpolationmode  none
attr source  packetReceivedFromUpper
attr title  "packets received from higher layer, count"
scalar UniversityNetwork.remote.ppp[1].ppp 	rcvdPkFromHL:sum(packetBytes) 	0
attr interpolationmode  none
attr source  packetReceivedFromUpper
attr title  "packets received from higher layer, sum(packetBytes)"
scalar UniversityNetwork.remote.ppp[1].ppp 	passedUpPk:count 	37497
attr interpolationmode  none
attr source  packetSentToUpper
attr title  "packets passed to higher layer, count"
scalar UniversityNetwork.remote.ppp[1].ppp 	passedUpPk:sum(packetBytes) 	125839932
attr interpolationmode  none
attr source  packetSentToUpper
attr title  "packets passed to higher layer, sum(packetBytes)"
scalar UniversityNetwork.remote.ppp[1].ppp 	txPk:count 	0
attr interpolationmode  none
attr source  packetSentToLower
attr title  "packets transmitted, count"
scalar UniversityNetwork.remote.ppp[1].ppp 	txPk:sum(packetBytes) 	0
attr interpolationmode  none
attr source  packetSentToLower
attr title  "packets transmitted, sum(packetBytes)"
scalar UniversityNetwork.remote.ppp[1].ppp 	droppedPkBitError:count 	0
attr interpolationmode  none
attr source  dropPkBitError
attr title  "packets dropped/bit error, count"
scalar UniversityNetwork.remote.ppp[1].ppp 	droppedPkBitError:sum(packetBytes) 	0
attr interpolationmode  none
attr source  dropPkBitError
attr title  "packets dropped/bit error, sum(packetBytes)"
scalar UniversityNetwork.remote.ppp[1].ppp 	droppedPkIfaceDown:count 	0
attr interpolationmode  none
attr source  dropPkIfaceDown
attr title  "packets dropped/interface down, count"
scalar UniversityNetwork.remote.ppp[1].ppp 	droppedPkIfaceDown:sum(packetBytes) 	0
attr interpolationmode  none
attr source  dropPkIfaceDown
attr title  "packets dropped/interface down, sum(packetBytes)"
scalar UniversityNetwork.remote.ppp[1].ppp 	rxPkOk:count 	37497
attr interpolationmode  none
attr source  rxPkOk
attr title  "packets received OK, count"
scalar UniversityNetwork.remote.ppp[1].ppp 	rxPkOk:sum(packetBytes) 	126102411
attr interpolationmode  none
attr source  rxPkOk
attr title  "packets received OK, sum(packetBytes)"
scalar UniversityNetwork.remote.ppp[1].ppp 	txState:timeavg 	0
attr interpolationmode  sample-hold
attr title  "tx state, timeavg"
scalar UniversityNetwork.Internet.networkLayer.arp 	initiatedARPResolution:count 	0
attr title  "ARP initiated resolutions, count"
scalar UniversityNetwork.Internet.networkLayer.arp 	sentReply:count 	0
attr title  "ARP replies sent, count"
scalar UniversityNetwork.Internet.networkLayer.arp 	sentReq:count 	0
attr title  "ARP request sent, count"
scalar UniversityNetwork.Internet.networkLayer.arp 	failedARPResolution:count 	0
attr title  "ARP failed resolutions, count"
scalar UniversityNetwork.Internet.networkLayer.arp 	completedARPResolution:count 	0
attr title  "ARP completed resolutions, count"
scalar UniversityNetwork.Internet.lo0.lo 	rcvdPkFromHL:count 	0
attr interpolationmode  none
attr source  packetReceivedFromUpper
attr title  "packets received from higher layer, count"
scalar UniversityNetwork.Internet.lo0.lo 	rcvdPkFromHL:sum(packetBytes) 	0
attr interpolationmode  none
attr source  packetReceivedFromUpper
attr title  "packets received from higher layer, sum(packetBytes)"
scalar UniversityNetwork.Internet.lo0.lo 	passedUpPk:count 	0
attr interpolationmode  none
attr source  packetSentToUpper
attr title  "packets passed to higher layer, count"
scalar UniversityNetwork.Internet.lo0.lo 	passedUpPk:sum(packetBytes) 	0
attr interpolationmode  none
attr source  packetSentToUpper
attr title  "packets passed to higher layer, sum(packetBytes)"
scalar UniversityNetwork.Internet.lo0.lo 	droppedPkBitError:count 	0
attr interpolationmode  none
attr source  dropPkBitError
attr title  "packets dropped/bit error, count"
scalar UniversityNetwork.Internet.lo0.lo 	droppedPkBitError:sum(packetBytes) 	0
attr interpolationmode  none
attr source  dropPkBitError
attr title  "packets dropped/bit error, sum(packetBytes)"
scalar UniversityNetwork.Internet.ppp[0].inputHook[0] 	duration 	500
scalar UniversityNetwork.Internet.ppp[0].inputHook[0] 	"total packets" 	451297
scalar UniversityNetwork.Internet.ppp[0].inputHook[0] 	"total bits" 	1002195120
scalar UniversityNetwork.Internet.ppp[0].inputHook[0] 	"avg throughput (bit/s)" 	2004390.24
scalar UniversityNetwork.Internet.ppp[0].inputHook[0] 	"avg packets/s" 	902.594
statistic UniversityNetwork.Internet.ppp[0].queue 	queueingTime:histogram
field count 470003
field mean 8.0440112547493e-05
field stddev 0.00027518171070813
field sum 37.807094217659
field sqrsum 0.03863209610079
field min 0
field max 0.0048224
attr interpolationmode  none
attr title  "queueing time, histogram"
bin	-INF	0
bin	-0.0002068000005	0
bin	-0.0001792266671	0
bin	-0.0001516533337	0
bin	-0.0001240800003	0
bin	-9.65066669e-05	0
bin	-6.89333335e-05	0
bin	-4.13600001e-05	0
bin	-1.37866667e-05	334686
bin	1.37866667e-05	589
bin	4.13600001e-05	1028
bin	6.89333335e-05	6605
bin	9.65066669e-05	74723
bin	0.0001240800003	943
bin	0.0001516533337	5245
bin	0.0001792266671	536
bin	0.0002068000005	4459
bin	0.0002343733339	3190
bin	0.0002619466673	3982
bin	0.0002895200007	2859
bin	0.0003170933341	1943
bin	0.0003446666675	4607
bin	0.0003722400009	2547
bin	0.0003998133343	1675
bin	0.0004273866677	2081
bin	0.0004549600011	2882
bin	0.0004825333345	967
bin	0.0005101066679	855
bin	0.0005376800013	895
bin	0.0005652533347	1691
bin	0.0005928266681	1084
bin	0.0006204000015	9931
scalar UniversityNetwork.Internet.ppp[0].queue 	dropPk:count 	30059
attr interpolationmode  none
attr source  dropPkByQueue
attr title  "dropped packets, count"
scalar UniversityNetwork.Internet.ppp[0].queue 	dropPk:sum(packetBytes) 	45038463
attr interpolationmode  none
attr source  dropPkByQueue
attr title  "dropped packets, sum(packetBytes)"
scalar UniversityNetwork.Internet.ppp[0].queue 	queueLength:max 	40
attr interpolationmode  sample-hold
attr title  "queue length, max"
scalar UniversityNetwork.Internet.ppp[0].queue 	queueLength:timeavg 	0.07561418843527
attr interpolationmode  sample-hold
attr title  "queue length, timeavg"
scalar UniversityNetwork.Internet.ppp[0].queue 	rcvdPk:count 	500062
attr interpolationmode  none
attr title  "received packets, count"
scalar UniversityNetwork.Internet.ppp[0].queue 	rcvdPk:sum(packetBytes) 	632741722
attr interpolationmode  none
attr title  "received packets, sum(packetBytes)"
scalar UniversityNetwork.Internet.ppp[0].ppp 	rcvdPkFromHL:count 	470003
attr interpolationmode  none
attr source  packetReceivedFromUpper
attr title  "packets received from higher layer, count"
scalar UniversityNetwork.Internet.ppp[0].ppp 	rcvdPkFromHL:sum(packetBytes) 	587703259
attr interpolationmode  none
attr source  packetReceivedFromUpper
attr title  "packets received from higher layer, sum(packetBytes)"
scalar UniversityNetwork.Internet.ppp[0].ppp 	passedUpPk:count 	451297
attr interpolationmode  none
attr source  packetSentToUpper
attr title  "packets passed to higher layer, count"
scalar UniversityNetwork.Internet.ppp[0].ppp 	passedUpPk:sum(packetBytes) 	125274390
attr interpolationmode  none
attr source  packetSentToUpper
attr title  "packets passed to higher layer, sum(packetBytes)"
scalar UniversityNetwork.Internet.ppp[0].ppp 	txPk:count 	470003
attr interpolationmode  none
attr source  packetSentToLower
attr title  "packets transmitted, count"
scalar UniversityNetwork.Internet.ppp[0].ppp 	txPk:sum(packetBytes) 	590993280
attr interpolationmode  none
attr source  packetSentToLower
attr title  "packets transmitted, sum(packetBytes)"
scalar UniversityNetwork.Internet.ppp[0].ppp 	droppedPkBitError:count 	0
attr interpolationmode  none
attr source  dropPkBitError
attr title  "packets dropped/bit error, count"
scalar UniversityNetwork.Internet.ppp[0].ppp 	droppedPkBitError:sum(packetBytes) 	0
attr interpolationmode  none
attr source  dropPkBitError
attr title  "packets dropped/bit error, sum(packetBytes)"
scalar UniversityNetwork.Internet.ppp[0].ppp 	droppedPkIfaceDown:count 	0
attr interpolationmode  none
attr source  dropPkIfaceDown
attr title  "packets dropped/interface down, count"
scalar UniversityNetwork.Internet.ppp[0].ppp 	droppedPkIfaceDown:sum(packetBytes) 	0
attr interpolationmode  none
attr source  dropPkIfaceDown
attr title  "packets dropped/interface down, sum(packetBytes)"
scalar UniversityNetwork.Internet.ppp[0].ppp 	rxPkOk:count 	451297
attr interpolationmode  none
attr source  rxPkOk
attr title  "packets received OK, count"
scalar UniversityNetwork.Internet.ppp[0].ppp 	rxPkOk:sum(packetBytes) 	128433469
attr interpolationmode  none
attr source  rxPkOk
attr title  "packets received OK, sum(packetBytes)"
scalar UniversityNetwork.Internet.ppp[0].ppp 	txState:timeavg 	0.0945589247991
attr interpolationmode  sample-hold
attr title  "tx state, timeavg"
scalar UniversityNetwork.Internet.tcpApp[0] 	sentPk:count 	912
attr interpolationmode  none
attr source  sentPk
attr title  "packets sent, count"
scalar UniversityNetwork.Internet.tcpApp[0] 	sentPk:sum(packetBytes) 	515307977
attr interpolationmode  none
attr source  sentPk
attr title  "packets sent, sum(packetBytes)"
scalar UniversityNetwork.Internet.tcpApp[0] 	rcvdPk:count 	912
attr interpolationmode  none
attr source  rcvdPk
attr title  "packets received, count"
scalar UniversityNetwork.Internet.tcpApp[0] 	rcvdPk:sum(packetBytes) 	684000
attr interpolationmode  none
attr source  rcvdPk
attr title  "packets received, sum(packetBytes)"
statistic UniversityNetwork.Internet.tcpApp[0] 	endToEndDelay:histogram
field count 912
field mean 0.021430681618393
field stddev 0.0048845195977679
field sum 19.544781635974
field sqrsum 0.44059311492116
field min 0.019272448127
field max 0.124450603637
attr interpolationmode  none
attr source  messageAge(rcvdPk)
attr title  "end-to-end delay, histogram"
attr unit  s
bin	-INF	0
bin	0.0107268077425	0
bin	0.011866231456033	0
bin	0.013005655169567	0
bin	0.0141450788831	0
bin	0.015284502596633	0
bin	0.016423926310167	0
bin	0.0175633500237	0
bin	0.018702773737233	299
bin	0.019842197450767	283
bin	0.0209816211643	115
bin	0.022121044877833	62
bin	0.023260468591367	42
bin	0.0243998923049	45
bin	0.025539316018433	28
bin	0.026678739731967	17
bin	0.0278181634455	8
bin	0.028957587159033	3
bin	0.030097010872567	2
bin	0.0312364345861	1
bin	0.032375858299633	2
bin	0.033515282013167	0
bin	0.0346547057267	1
bin	0.035794129440233	1
bin	0.036933553153767	0
bin	0.0380729768673	0
bin	0.039212400580833	1
bin	0.040351824294367	0
bin	0.0414912480079	0
bin	0.042630671721433	0
bin	0.043770095434967	0
bin	0.0449095191485	2
scalar UniversityNetwork.Professor.networkLayer.arp 	initiatedARPResolution:count 	0
attr title  "ARP initiated resolutions, count"
scalar UniversityNetwork.Professor.networkLayer.arp 	sentReply:count 	0
attr title  "ARP replies sent, count"
scalar UniversityNetwork.Professor.networkLayer.arp 	sentReq:count 	0
attr title  "ARP request sent, count"
scalar UniversityNetwork.Professor.networkLayer.arp 	failedARPResolution:count 	0
attr title  "ARP failed resolutions, count"
scalar UniversityNetwork.Professor.networkLayer.arp 	completedARPResolution:count 	0
attr title  "ARP completed resolutions, count"
scalar UniversityNetwork.Professor.lo0.lo 	rcvdPkFromHL:count 	0
attr interpolationmode  none
attr source  packetReceivedFromUpper
attr title  "packets received from higher layer, count"
scalar UniversityNetwork.Professor.lo0.lo 	rcvdPkFromHL:sum(packetBytes) 	0
attr interpolationmode  none
attr source  packetReceivedFromUpper
attr title  "packets received from higher layer, sum(packetBytes)"
scalar UniversityNetwork.Professor.lo0.lo 	passedUpPk:count 	0
attr interpolationmode  none
attr source  packetSentToUpper
attr title  "packets passed to higher layer, count"
scalar UniversityNetwork.Professor.lo0.lo 	passedUpPk:sum(packetBytes) 	0
attr interpolationmode  none
attr source  packetSentToUpper
attr title  "packets passed to higher layer, sum(packetBytes)"
scalar UniversityNetwork.Professor.lo0.lo 	droppedPkBitError:count 	0
attr interpolationmode  none
attr source  dropPkBitError
attr title  "packets dropped/bit error, count"
scalar UniversityNetwork.Professor.lo0.lo 	droppedPkBitError:sum(packetBytes) 	0
attr interpolationmode  none
attr source  dropPkBitError
attr title  "packets dropped/bit error, sum(packetBytes)"
scalar UniversityNetwork.Professor.ppp[0].inputHook[0] 	duration 	500
scalar UniversityNetwork.Professor.ppp[0].inputHook[0] 	"total packets" 	12499
scalar UniversityNetwork.Professor.ppp[0].inputHook[0] 	"total bits" 	142788576
scalar UniversityNetwork.Professor.ppp[0].inputHook[0] 	"avg throughput (bit/s)" 	285577.152
scalar UniversityNetwork.Professor.ppp[0].inputHook[0] 	"avg packets/s" 	24.998
statistic UniversityNetwork.Professor.ppp[0].queue 	queueingTime:histogram
field count 12499
field mean 0
field stddev 0
field sum 0
field sqrsum 0
field min 0
field max 0
attr interpolationmode  none
attr title  "queueing time, histogram"
bin	-INF	0
bin	-0.5	0
bin	-0.46666666666667	0
bin	-0.43333333333333	0
bin	-0.4	0
bin	-0.36666666666667	0
bin	-0.33333333333333	0
bin	-0.3	0
bin	-0.26666666666667	0
bin	-0.23333333333333	0
bin	-0.2	0
bin	-0.16666666666667	0
bin	-0.13333333333333	0
bin	-0.1	0
bin	-0.066666666666667	0
bin	-0.033333333333333	0
bin	0	12499
bin	0.033333333333333	0
bin	0.066666666666667	0
bin	0.1	0
bin	0.13333333333333	0
bin	0.16666666666667	0
bin	0.2	0
bin	0.23333333333333	0
bin	0.26666666666667	0
bin	0.3	0
bin	0.33333333333333	0
bin	0.36666666666667	0
bin	0.4	0
bin	0.43333333333333	0
bin	0.46666666666667	0
bin	0.5	0
scalar UniversityNetwork.Professor.ppp[0].queue 	dropPk:count 	0
attr interpolationmode  none
attr source  dropPkByQueue
attr title  "dropped packets, count"
scalar UniversityNetwork.Professor.ppp[0].queue 	dropPk:sum(packetBytes) 	0
attr interpolationmode  none
attr source  dropPkByQueue
attr title  "dropped packets, sum(packetBytes)"
scalar UniversityNetwork.Professor.ppp[0].queue 	queueLength:max 	0
attr interpolationmode  sample-hold
attr title  "queue length, max"
scalar UniversityNetwork.Professor.ppp[0].queue 	queueLength:timeavg 	0
attr interpolationmode  sample-hold
attr title  "queue length, timeavg"
scalar UniversityNetwork.Professor.ppp[0].queue 	rcvdPk:count 	12499
attr interpolationmode  none
attr title  "received packets, count"
scalar UniversityNetwork.Professor.ppp[0].queue 	rcvdPk:sum(packetBytes) 	17848572
attr interpolationmode  none
attr title  "received packets, sum(packetBytes)"
scalar UniversityNetwork.Professor.ppp[0].ppp 	rcvdPkFromHL:count 	12499
attr interpolationmode  none
attr source  packetReceivedFromUpper
attr title  "packets received from higher layer, count"
scalar UniversityNetwork.Professor.ppp[0].ppp 	rcvdPkFromHL:sum(packetBytes) 	17848572
attr interpolationmode  none
attr source  packetReceivedFromUpper
attr title  "packets received from higher layer, sum(packetBytes)"
scalar UniversityNetwork.Professor.ppp[0].ppp 	passedUpPk:count 	12499
attr interpolationmode  none
attr source  packetSentToUpper
attr title  "packets passed to higher layer, count"
scalar UniversityNetwork.Professor.ppp[0].ppp 	passedUpPk:sum(packetBytes) 	17848572
attr interpolationmode  none
attr source  packetSentToUpper
attr title  "packets passed to higher layer, sum(packetBytes)"
scalar UniversityNetwork.Professor.ppp[0].ppp 	txPk:count 	12499
attr interpolationmode  none
attr source  packetSentToLower
attr title  "packets transmitted, count"
scalar UniversityNetwork.Professor.ppp[0].ppp 	txPk:sum(packetBytes) 	17936065
attr interpolationmode  none
attr source  packetSentToLower
attr title  "packets transmitted, sum(packetBytes)"
scalar UniversityNetwork.Professor.ppp[0].ppp 	droppedPkBitError:count 	0
attr interpolationmode  none
attr source  dropPkBitError
attr title  "packets dropped/bit error, count"
scalar UniversityNetwork.Professor.ppp[0].ppp 	droppedPkBitError:sum(packetBytes) 	0
attr interpolationmode  none
attr source  dropPkBitError
attr title  "packets dropped/bit error, sum(packetBytes)"
scalar UniversityNetwork.Professor.ppp[0].ppp 	droppedPkIfaceDown:count 	0
attr interpolationmode  none
attr source  dropPkIfaceDown
attr title  "packets dropped/interface down, count"
scalar UniversityNetwork.Professor.ppp[0].ppp 	droppedPkIfaceDown:sum(packetBytes) 	0
attr interpolationmode  none
attr source  dropPkIfaceDown
attr title  "packets dropped/interface down, sum(packetBytes)"
scalar UniversityNetwork.Professor.ppp[0].ppp 	rxPkOk:count 	12499
attr interpolationmode  none
attr source  rxPkOk
attr title  "packets received OK, count"
scalar UniversityNetwork.Professor.ppp[0].ppp 	rxPkOk:sum(packetBytes) 	17936065
attr interpolationmode  none
attr source  rxPkOk
attr title  "packets received OK, sum(packetBytes)"
scalar UniversityNetwork.Professor.ppp[0].ppp 	txState:timeavg 	0.0028697703999996
attr interpolationmode  sample-hold
attr title  "tx state, timeavg"
scalar UniversityNetwork.Professor.udpApp[0] 	#droppedBecauseLate 	30
scalar UniversityNetwork.Professor.udpApp[0] 	avgDuration 	0.023996929343737
scalar UniversityNetwork.Professor.udpApp[0] 	"error rate" 	0.0024001920153612
scalar UniversityNetwork.Professor.udpApp[0] 	"packets sent" 	12499
scalar UniversityNetwork.Professor.udpApp[0] 	"packets received" 	12499
scalar UniversityNetwork.Professor.udpApp[0] 	sentPk:count 	12499
attr interpolationmode  none
attr source  sentPk
attr title  "packets sent, count"
scalar UniversityNetwork.Professor.udpApp[0] 	sentPk:sum(packetBytes) 	17498600
attr interpolationmode  none
attr source  sentPk
attr title  "packets sent, sum(packetBytes)"
scalar UniversityNetwork.Professor.udpApp[0] 	rcvdPk:count 	12499
attr interpolationmode  none
attr source  rcvdPk
attr title  "packets received, count"
scalar UniversityNetwork.Professor.udpApp[0] 	rcvdPk:sum(packetBytes) 	17498600
attr interpolationmode  none
attr source  rcvdPk
attr title  "packets received, sum(packetBytes)"
statistic UniversityNetwork.Professor.udpApp[0] 	rcvdPkLifetime:stats
field count 12499
field mean 0.023996929343713
field stddev 0.029033999006024
field sum 299.93761986707
field sqrsum 17.733059653798
field min 0.019412849999
field max 1.06859154522
attr interpolationmode  none
attr source  messageAge(rcvdPk)
attr title  "received packet lifetime, stats"
attr unit  s
scalar UniversityNetwork.Professor.udp 	droppedPkBadChecksum:count 	0
attr interpolationmode  none
attr title  "packets dropped (checksum error), count"
scalar UniversityNetwork.Professor.udp 	droppedPkWrongPort:count 	0
attr interpolationmode  none
attr title  "packets dropped (wrong port), count"
scalar UniversityNetwork.Professor.udp 	passedUpPk:count 	12499
attr interpolationmode  none
attr title  "packets passed up, count"
scalar UniversityNetwork.Professor.udp 	sentPk:count 	12499
attr interpolationmode  none
attr source  sentPk
attr title  "packets sent, count"
scalar UniversityNetwork.Professor.udp 	sentPk:sum(packetBytes) 	17598592
attr interpolationmode  none
attr source  sentPk
attr title  "packets sent, sum(packetBytes)"
scalar UniversityNetwork.Professor.udp 	rcvdPk:count 	12499
attr interpolationmode  none
attr source  rcvdPk
attr title  "packets received, count"
scalar UniversityNetwork.Professor.udp 	rcvdPk:sum(packetBytes) 	17598592
attr interpolationmode  none
attr source  rcvdPk
attr title  "packets received, sum(packetBytes)"
scalar UniversityNetwork.accessPoint.relayUnit 	"number of received BPDUs from STP module" 	0
scalar UniversityNetwork.accessPoint.relayUnit 	"number of received frames from network (including BPDUs)" 	938807
scalar UniversityNetwork.accessPoint.relayUnit 	"number of dropped frames (including BPDUs)" 	0
scalar UniversityNetwork.accessPoint.relayUnit 	"number of delivered BPDUs to the STP module" 	0
scalar UniversityNetwork.accessPoint.relayUnit 	"number of dispatched BPDU frames to the network" 	0
scalar UniversityNetwork.accessPoint.relayUnit 	"number of dispatched non-BDPU frames to the network" 	938807
scalar UniversityNetwork.accessPoint.wlan[0].mgmt 	dropPkByQueue:count 	26735
attr interpolationmode  none
attr source  dropPkByQueue
attr title  "packets dropped by queue, count"
scalar UniversityNetwork.accessPoint.wlan[0].mgmt 	dropPkByQueue:sum(packetBytes) 	18366358
attr interpolationmode  none
attr source  dropPkByQueue
attr title  "packets dropped by queue, sum(packetBytes)"
scalar UniversityNetwork.accessPoint.wlan[0].mgmt 	dataQueueLen:max 	50
attr interpolationmode  sample-hold
attr title  "data queue length, max"
scalar UniversityNetwork.accessPoint.wlan[0].mgmt 	dataQueueLen:timeavg 	37.69111904146
attr interpolationmode  sample-hold
attr title  "data queue length, timeavg"
scalar UniversityNetwork.accessPoint.wlan[0].mac 	"number of received packets" 	464590
scalar UniversityNetwork.accessPoint.wlan[0].mac 	"number of collisions" 	3054
scalar UniversityNetwork.accessPoint.wlan[0].mac 	"number of internal collisions" 	0
scalar UniversityNetwork.accessPoint.wlan[0].mac 	"number of retry for AC 0" 	39946
scalar UniversityNetwork.accessPoint.wlan[0].mac 	"sent and received bits" 	4763996776
scalar UniversityNetwork.accessPoint.wlan[0].mac 	"sent packet within AC 0" 	448473
scalar UniversityNetwork.accessPoint.wlan[0].mac 	"sent in TXOP " 	0
scalar UniversityNetwork.accessPoint.wlan[0].mac 	"sentWithoutRetry AC 0" 	410526
scalar UniversityNetwork.accessPoint.wlan[0].mac 	"numGivenUp AC 0" 	0
scalar UniversityNetwork.accessPoint.wlan[0].mac 	"numDropped AC 0" 	0
scalar UniversityNetwork.accessPoint.wlan[0].mac 	rcvdPkFromHL:count 	453758
attr interpolationmode  none
attr source  packetReceivedFromUpper
attr title  "packets received from higher layer, count"
scalar UniversityNetwork.accessPoint.wlan[0].mac 	rcvdPkFromHL:sum(packetBytes) 	595502681
attr interpolationmode  none
attr source  packetReceivedFromUpper
attr title  "packets received from higher layer, sum(packetBytes)"
scalar UniversityNetwork.accessPoint.wlan[0].mac 	passedUpPk:count 	464679
attr interpolationmode  none
attr source  packetSentToUpper
attr title  "packets passed to higher layer, count"
scalar UniversityNetwork.accessPoint.wlan[0].mac 	passedUpPk:sum(packetBytes) 	162646254
attr interpolationmode  none
attr source  packetSentToUpper
attr title  "packets passed to higher layer, sum(packetBytes)"
scalar UniversityNetwork.accessPoint.wlan[0].mac 	rcvdPkFromLL:count 	916213
attr interpolationmode  none
attr source  packetReceivedFromLower
attr title  "packets received from lower layer, count"
scalar UniversityNetwork.accessPoint.wlan[0].mac 	rcvdPkFromLL:sum(packetBytes) 	169853240
attr interpolationmode  none
attr source  packetReceivedFromLower
attr title  "packets received from lower layer, sum(packetBytes)"
scalar UniversityNetwork.accessPoint.wlan[0].mac 	sentDownPk:count 	958292
attr interpolationmode  none
attr source  packetSentToLower
attr title  "packets sent to lower layer, count"
scalar UniversityNetwork.accessPoint.wlan[0].mac 	sentDownPk:sum(packetBytes) 	651234522
attr interpolationmode  none
attr source  packetSentToLower
attr title  "packets sent to lower layer, sum(packetBytes)"
scalar UniversityNetwork.accessPoint.wlan[0].radio 	lossRate:min 	0
attr interpolationmode  backward-sample-hold
attr title  "packet loss rate, min"
scalar UniversityNetwork.accessPoint.wlan[0].radio 	lossRate:max 	0.34
attr interpolationmode  backward-sample-hold
attr title  "packet loss rate, max"
scalar UniversityNetwork.accessPoint.wlan[0].radio 	lossRate:timeavg 	0.0033730302089648
attr interpolationmode  backward-sample-hold
attr title  "packet loss rate, timeavg"
statistic UniversityNetwork.accessPoint.wlan[0].radio 	channelNo:histogram
field count 1
field mean 0
field stddev -nan
field sum 0
field sqrsum 0
field min 0
field max 0
attr interpolationmode  sample-hold
attr title  "channel no, histogram"
bin	-INF	0
bin	-0.5	0
bin	-0.46666666666667	0
bin	-0.43333333333333	0
bin	-0.4	0
bin	-0.36666666666667	0
bin	-0.33333333333333	0
bin	-0.3	0
bin	-0.26666666666667	0
bin	-0.23333333333333	0
bin	-0.2	0
bin	-0.16666666666667	0
bin	-0.13333333333333	0
bin	-0.1	0
bin	-0.066666666666667	0
bin	-0.033333333333333	0
bin	0	1
bin	0.033333333333333	0
bin	0.066666666666667	0
bin	0.1	0
bin	0.13333333333333	0
bin	0.16666666666667	0
bin	0.2	0
bin	0.23333333333333	0
bin	0.26666666666667	0
bin	0.3	0
bin	0.33333333333333	0
bin	0.36666666666667	0
bin	0.4	0
bin	0.43333333333333	0
bin	0.46666666666667	0
bin	0.5	0
scalar UniversityNetwork.accessPoint.wlan[0].radio 	radioState:count 	3780827
attr interpolationmode  sample-hold
attr title  "radio state (enum), count"
scalar UniversityNetwork.accessPoint.wlan[0].radio 	bitrate:min 	54000000
attr interpolationmode  sample-hold
attr title  "tx bitrate, min"
attr unit  bps
scalar UniversityNetwork.accessPoint.wlan[0].radio 	bitrate:max 	54000000
attr interpolationmode  sample-hold
attr title  "tx bitrate, max"
attr unit  bps
scalar UniversityNetwork.accessPoint.wlan[0].radio 	bitrate:timeavg 	54000000
attr interpolationmode  sample-hold
attr title  "tx bitrate, timeavg"
attr unit  bps
scalar UniversityNetwork.accessPoint.eth[0].mac 	"simulated time" 	500
scalar UniversityNetwork.accessPoint.eth[0].mac 	full-duplex 	1
scalar UniversityNetwork.accessPoint.eth[0].mac 	"frames/sec sent" 	928.232
scalar UniversityNetwork.accessPoint.eth[0].mac 	"frames/sec rcvd" 	949.382
scalar UniversityNetwork.accessPoint.eth[0].mac 	"bits/sec sent" 	2435061.584
scalar UniversityNetwork.accessPoint.eth[0].mac 	"bits/sec rcvd" 	9640480.432
scalar UniversityNetwork.accessPoint.eth[0].mac 	"rx channel idle (%)" 	90.298759120024
scalar UniversityNetwork.accessPoint.eth[0].mac 	"rx channel utilization (%)" 	9.7012408799758
scalar UniversityNetwork.accessPoint.eth[0].mac 	rxPkFromHL:count 	464116
attr interpolationmode  none
attr source  rxPkFromHL
attr title  "packet bytes from higher layer, count"
scalar UniversityNetwork.accessPoint.eth[0].mac 	rxPkFromHL:sum(packetBytes) 	152191349
attr interpolationmode  none
attr source  rxPkFromHL
attr title  "packet bytes from higher layer, sum(packetBytes)"
scalar UniversityNetwork.accessPoint.eth[0].mac 	rxPausePkUnits:count 	0
attr interpolationmode  none
attr title  "pause units received, count"
scalar UniversityNetwork.accessPoint.eth[0].mac 	rxPausePkUnits:sum 	0
attr interpolationmode  none
attr title  "pause units received, sum"
scalar UniversityNetwork.accessPoint.eth[0].mac 	txPausePkUnits:count 	0
attr interpolationmode  none
attr title  "pause units sent, count"
scalar UniversityNetwork.accessPoint.eth[0].mac 	txPausePkUnits:sum 	0
attr interpolationmode  none
attr title  "pause units sent, sum"
scalar UniversityNetwork.accessPoint.eth[0].mac 	txPk:count 	464116
attr interpolationmode  none
attr source  txPk
attr title  "packets transmitted, count"
scalar UniversityNetwork.accessPoint.eth[0].mac 	txPk:sum(packetBytes) 	152191349
attr interpolationmode  none
attr source  txPk
attr title  "packets transmitted, sum(packetBytes)"
scalar UniversityNetwork.accessPoint.eth[0].mac 	droppedPkNotForUs:count 	0
attr interpolationmode  none
attr source  dropPkNotForUs
attr title  "packets dropped/not for us, count"
scalar UniversityNetwork.accessPoint.eth[0].mac 	droppedPkNotForUs:sum(packetBytes) 	0
attr interpolationmode  none
attr source  dropPkNotForUs
attr title  "packets dropped/not for us, sum(packetBytes)"
scalar UniversityNetwork.accessPoint.eth[0].mac 	passedUpPk:count 	474691
attr interpolationmode  none
attr source  packetSentToUpper
attr title  "packets passed to higher layer, count"
scalar UniversityNetwork.accessPoint.eth[0].mac 	passedUpPk:sum(packetBytes) 	602530027
attr interpolationmode  none
attr source  packetSentToUpper
attr title  "packets passed to higher layer, sum(packetBytes)"
scalar UniversityNetwork.accessPoint.eth[0].mac 	droppedPkBitError:count 	0
attr interpolationmode  none
attr source  dropPkBitError
attr title  "packets dropped/bit error, count"
scalar UniversityNetwork.accessPoint.eth[0].mac 	droppedPkBitError:sum(packetBytes) 	0
attr interpolationmode  none
attr source  dropPkBitError
attr title  "packets dropped/bit error, sum(packetBytes)"
scalar UniversityNetwork.accessPoint.eth[0].mac 	droppedPkIfaceDown:count 	0
attr interpolationmode  none
attr source  dropPkIfaceDown
attr title  "packets dropped/interface down, count"
scalar UniversityNetwork.accessPoint.eth[0].mac 	droppedPkIfaceDown:sum(packetBytes) 	0
attr interpolationmode  none
attr source  dropPkIfaceDown
attr title  "packets dropped/interface down, sum(packetBytes)"
scalar UniversityNetwork.accessPoint.eth[0].mac 	rxPkOk:count 	474691
attr interpolationmode  none
attr source  rxPkOk
attr title  "packets received OK, count"
scalar UniversityNetwork.accessPoint.eth[0].mac 	rxPkOk:sum(packetBytes) 	602530027
attr interpolationmode  none
attr source  rxPkOk
attr title  "packets received OK, sum(packetBytes)"
[...]
attr title  "packets received, sum(packetBytes)"
statistic UniversityNetwork.Students[42].tcpApp[0] 	endToEndDelay:histogram
field count 24
field mean 6.5174821344776
field stddev 6.6398780342658
field sum 156.41957122746
field sqrsum 2033.4853080859
field min 0.373856142926
field max 22.085139825479
attr interpolationmode  none
attr source  messageAge(rcvdPk)
attr title  "end-to-end delay, histogram"
attr unit  s
bin	-INF	0
bin	-10.48178569835	0
bin	-9.0343667861803	0
bin	-7.5869478740101	0
bin	-6.1395289618399	0
bin	-4.6921100496697	0
bin	-3.2446911374995	0
bin	-1.7972722253293	0
bin	-0.3498533131591	5
bin	1.0975655990111	3
bin	2.5449845111813	4
bin	3.9924034233515	3
bin	5.4398223355217	2
bin	6.8872412476919	1
bin	8.3346601598621	0
bin	9.7820790720323	0
bin	11.229497984203	1
bin	12.676916896373	1
bin	14.124335808543	0
bin	15.571754720713	1
bin	17.019173632883	1
bin	18.466592545054	0
bin	19.914011457224	1
bin	21.361430369394	1
bin	22.808849281564	0
bin	24.256268193734	0
bin	25.703687105904	0
bin	27.151106018075	0
bin	28.598524930245	0
bin	30.045943842415	0
bin	31.493362754585	0
bin	32.940781666755	0
scalar UniversityNetwork.Students[43].networkLayer.arp 	initiatedARPResolution:count 	4
attr title  "ARP initiated resolutions, count"
scalar UniversityNetwork.Students[43].networkLayer.arp 	sentReply:count 	0
attr title  "ARP replies sent, count"
scalar UniversityNetwork.Students[43].networkLayer.arp 	sentReq:count 	7
attr title  "ARP request sent, count"
scalar UniversityNetwork.Students[43].networkLayer.arp 	failedARPResolution:count 	0
attr title  "ARP failed resolutions, count"
scalar UniversityNetwork.Students[43].networkLayer.arp 	completedARPResolution:count 	4
attr title  "ARP completed resolutions, count"
scalar UniversityNetwork.Students[43].lo0.lo 	rcvdPkFromHL:count 	0
attr interpolationmode  none
attr source  packetReceivedFromUpper
attr title  "packets received from higher layer, count"
scalar UniversityNetwork.Students[43].lo0.lo 	rcvdPkFromHL:sum(packetBytes) 	0
attr interpolationmode  none
attr source  packetReceivedFromUpper
attr title  "packets received from higher layer, sum(packetBytes)"
scalar UniversityNetwork.Students[43].lo0.lo 	passedUpPk:count 	0
attr interpolationmode  none
attr source  packetSentToUpper
attr title  "packets passed to higher layer, count"
scalar UniversityNetwork.Students[43].lo0.lo 	passedUpPk:sum(packetBytes) 	0
attr interpolationmode  none
attr source  packetSentToUpper
attr title  "packets passed to higher layer, sum(packetBytes)"
scalar UniversityNetwork.Students[43].lo0.lo 	droppedPkBitError:count 	0
attr interpolationmode  none
attr source  dropPkBitError
attr title  "packets dropped/bit error, count"
scalar UniversityNetwork.Students[43].lo0.lo 	droppedPkBitError:sum(packetBytes) 	0
attr interpolationmode  none
attr source  dropPkBitError
attr title  "packets dropped/bit error, sum(packetBytes)"
scalar UniversityNetwork.Students[43].wlan[0].agent 	dropConfirm:count 	0
attr title  "dropped confirms, count"
scalar UniversityNetwork.Students[43].wlan[0].agent 	acceptConfirm:count 	3
attr title  "accepted confirms, count"
scalar UniversityNetwork.Students[43].wlan[0].agent 	sentRequest:count 	3
attr title  "sent requests, count"
scalar UniversityNetwork.Students[43].wlan[0].mgmt 	dropPkByQueue:count 	0
attr interpolationmode  none
attr source  dropPkByQueue
attr title  "packets dropped by queue, count"
scalar UniversityNetwork.Students[43].wlan[0].mgmt 	dropPkByQueue:sum(packetBytes) 	0
attr interpolationmode  none
attr source  dropPkByQueue
attr title  "packets dropped by queue, sum(packetBytes)"
scalar UniversityNetwork.Students[43].wlan[0].mgmt 	dataQueueLen:max 	4
attr interpolationmode  sample-hold
attr title  "data queue length, max"
scalar UniversityNetwork.Students[43].wlan[0].mgmt 	dataQueueLen:timeavg 	0.00087434534818
attr interpolationmode  sample-hold
attr title  "data queue length, timeavg"
scalar UniversityNetwork.Students[43].wlan[0].mac 	"number of received packets" 	7242
scalar UniversityNetwork.Students[43].wlan[0].mac 	"number of collisions" 	46395
scalar UniversityNetwork.Students[43].wlan[0].mac 	"number of internal collisions" 	0
scalar UniversityNetwork.Students[43].wlan[0].mac 	"number of retry for AC 0" 	591
scalar UniversityNetwork.Students[43].wlan[0].mac 	"sent and received bits" 	4889552
scalar UniversityNetwork.Students[43].wlan[0].mac 	"sent packet within AC 0" 	7270
scalar UniversityNetwork.Students[43].wlan[0].mac 	"sent in TXOP " 	0
scalar UniversityNetwork.Students[43].wlan[0].mac 	"sentWithoutRetry AC 0" 	6707
scalar UniversityNetwork.Students[43].wlan[0].mac 	"numGivenUp AC 0" 	0
scalar UniversityNetwork.Students[43].wlan[0].mac 	"numDropped AC 0" 	0
scalar UniversityNetwork.Students[43].wlan[0].mac 	rcvdPkFromHL:count 	7271
attr interpolationmode  none
attr source  packetReceivedFromUpper
attr title  "packets received from higher layer, count"
scalar UniversityNetwork.Students[43].wlan[0].mac 	rcvdPkFromHL:sum(packetBytes) 	611194
attr interpolationmode  none
attr source  packetReceivedFromUpper
attr title  "packets received from higher layer, sum(packetBytes)"
scalar UniversityNetwork.Students[43].wlan[0].mac 	passedUpPk:count 	12458
attr interpolationmode  none
attr source  packetSentToUpper
attr title  "packets passed to higher layer, count"
scalar UniversityNetwork.Students[43].wlan[0].mac 	passedUpPk:sum(packetBytes) 	11363578
attr interpolationmode  none
attr source  packetSentToUpper
attr title  "packets passed to higher layer, sum(packetBytes)"
scalar UniversityNetwork.Students[43].wlan[0].mac 	rcvdPkFromLL:count 	1857107
attr interpolationmode  none
attr source  packetReceivedFromLower
attr title  "packets received from lower layer, count"
scalar UniversityNetwork.Students[43].wlan[0].mac 	rcvdPkFromLL:sum(packetBytes) 	807651582
attr interpolationmode  none
attr source  packetReceivedFromLower
attr title  "packets received from lower layer, sum(packetBytes)"
scalar UniversityNetwork.Students[43].wlan[0].mac 	sentDownPk:count 	15104
attr interpolationmode  none
attr source  packetSentToLower
attr title  "packets sent to lower layer, count"
scalar UniversityNetwork.Students[43].wlan[0].mac 	sentDownPk:sum(packetBytes) 	764758
attr interpolationmode  none
attr source  packetSentToLower
attr title  "packets sent to lower layer, sum(packetBytes)"
scalar UniversityNetwork.Students[43].wlan[0].radio 	lossRate:min 	0
attr interpolationmode  backward-sample-hold
attr title  "packet loss rate, min"
scalar UniversityNetwork.Students[43].wlan[0].radio 	lossRate:max 	0.24
attr interpolationmode  backward-sample-hold
attr title  "packet loss rate, max"
scalar UniversityNetwork.Students[43].wlan[0].radio 	lossRate:timeavg 	0.025029379015121
attr interpolationmode  backward-sample-hold
attr title  "packet loss rate, timeavg"
statistic UniversityNetwork.Students[43].wlan[0].radio 	channelNo:histogram
field count 1
field mean 0
field stddev -nan
field sum 0
field sqrsum 0
field min 0
field max 0
attr interpolationmode  sample-hold
attr title  "channel no, histogram"
bin	-INF	0
bin	-0.5	0
bin	-0.46666666666667	0
bin	-0.43333333333333	0
bin	-0.4	0
bin	-0.36666666666667	0
bin	-0.33333333333333	0
bin	-0.3	0
bin	-0.26666666666667	0
bin	-0.23333333333333	0
bin	-0.2	0
bin	-0.16666666666667	0
bin	-0.13333333333333	0
bin	-0.1	0
bin	-0.066666666666667	0
bin	-0.033333333333333	0
bin	0	1
bin	0.033333333333333	0
bin	0.066666666666667	0
bin	0.1	0
bin	0.13333333333333	0
bin	0.16666666666667	0
bin	0.2	0
bin	0.23333333333333	0
bin	0.26666666666667	0
bin	0.3	0
bin	0.33333333333333	0
bin	0.36666666666667	0
bin	0.4	0
bin	0.43333333333333	0
bin	0.46666666666667	0
bin	0.5	0
scalar UniversityNetwork.Students[43].wlan[0].radio 	radioState:count 	3743934
attr interpolationmode  sample-hold
attr title  "radio state (enum), count"
scalar UniversityNetwork.Students[43].wlan[0].radio 	bitrate:min 	54000000
attr interpolationmode  sample-hold
attr title  "tx bitrate, min"
attr unit  bps
scalar UniversityNetwork.Students[43].wlan[0].radio 	bitrate:max 	54000000
attr interpolationmode  sample-hold
attr title  "tx bitrate, max"
attr unit  bps
scalar UniversityNetwork.Students[43].wlan[0].radio 	bitrate:timeavg 	54000000
attr interpolationmode  sample-hold
attr title  "tx bitrate, timeavg"
attr unit  bps
scalar UniversityNetwork.Students[43].tcpApp[0] 	numActiveSessions:max 	1
attr interpolationmode  sample-hold
attr source  sum(connect)
attr title  "number of active sessions, max"
scalar UniversityNetwork.Students[43].tcpApp[0] 	numActiveSessions:timeavg 	0.35233189322982
attr interpolationmode  sample-hold
attr source  sum(connect)
attr title  "number of active sessions, timeavg"
scalar UniversityNetwork.Students[43].tcpApp[0] 	numSessions:last 	20
attr source  sum(connect+1)/2
attr title  "total number of sessions, last"
scalar UniversityNetwork.Students[43].tcpApp[0] 	sentPk:count 	20
attr interpolationmode  none
attr source  sentPk
attr title  "packets sent, count"
scalar UniversityNetwork.Students[43].tcpApp[0] 	sentPk:sum(packetBytes) 	15000
attr interpolationmode  none
attr source  sentPk
attr title  "packets sent, sum(packetBytes)"
scalar UniversityNetwork.Students[43].tcpApp[0] 	rcvdPk:count 	19
attr interpolationmode  none
attr source  rcvdPk
attr title  "packets received, count"
scalar UniversityNetwork.Students[43].tcpApp[0] 	rcvdPk:sum(packetBytes) 	10099612
attr interpolationmode  none
attr source  rcvdPk
attr title  "packets received, sum(packetBytes)"
statistic UniversityNetwork.Students[43].tcpApp[0] 	endToEndDelay:histogram
field count 19
field mean 7.1572813557477
field stddev 7.4396678289619
field sum 135.98834575921
field sqrsum 1969.5826849966
field min 0.077877818755
field max 28.097133968143
attr interpolationmode  none
attr source  messageAge(rcvdPk)
attr title  "end-to-end delay, histogram"
attr unit  s
bin	-INF	0
bin	-13.931750255939	0
bin	-12.06379984598	0
bin	-10.195849436021	0
bin	-8.3278990260614	0
bin	-6.4599486161022	0
bin	-4.591998206143	0
bin	-2.7240477961838	0
bin	-0.8560973862246	6
bin	1.0118530237346	2
bin	2.8798034336938	1
bin	4.747753843653	1
bin	6.6157042536122	1
bin	8.4836546635714	3
bin	10.351605073531	0
bin	12.21955548349	2
bin	14.087505893449	1
bin	15.955456303408	1
bin	17.823406713367	0
bin	19.691357123327	0
bin	21.559307533286	0
bin	23.427257943245	0
bin	25.295208353204	0
bin	27.163158763163	1
bin	29.031109173123	0
bin	30.899059583082	0
bin	32.767009993041	0
bin	34.634960403	0
bin	36.502910812959	0
bin	38.370861222919	0
bin	40.238811632878	0
bin	42.106762042837	0
scalar UniversityNetwork.Students[44].networkLayer.arp 	initiatedARPResolution:count 	5
attr title  "ARP initiated resolutions, count"
scalar UniversityNetwork.Students[44].networkLayer.arp 	sentReply:count 	1
attr title  "ARP replies sent, count"
scalar UniversityNetwork.Students[44].networkLayer.arp 	sentReq:count 	7
attr title  "ARP request sent, count"
scalar UniversityNetwork.Students[44].networkLayer.arp 	failedARPResolution:count 	0
attr title  "ARP failed resolutions, count"
scalar UniversityNetwork.Students[44].networkLayer.arp 	completedARPResolution:count 	8
attr title  "ARP completed resolutions, count"
scalar UniversityNetwork.Students[44].lo0.lo 	rcvdPkFromHL:count 	0
attr interpolationmode  none
attr source  packetReceivedFromUpper
attr title  "packets received from higher layer, count"
scalar UniversityNetwork.Students[44].lo0.lo 	rcvdPkFromHL:sum(packetBytes) 	0
attr interpolationmode  none
attr source  packetReceivedFromUpper
attr title  "packets received from higher layer, sum(packetBytes)"
scalar UniversityNetwork.Students[44].lo0.lo 	passedUpPk:count 	0
attr interpolationmode  none
attr source  packetSentToUpper
attr title  "packets passed to higher layer, count"
scalar UniversityNetwork.Students[44].lo0.lo 	passedUpPk:sum(packetBytes) 	0
attr interpolationmode  none
attr source  packetSentToUpper
attr title  "packets passed to higher layer, sum(packetBytes)"
scalar UniversityNetwork.Students[44].lo0.lo 	droppedPkBitError:count 	0
attr interpolationmode  none
attr source  dropPkBitError
attr title  "packets dropped/bit error, count"
scalar UniversityNetwork.Students[44].lo0.lo 	droppedPkBitError:sum(packetBytes) 	0
attr interpolationmode  none
attr source  dropPkBitError
attr title  "packets dropped/bit error, sum(packetBytes)"
scalar UniversityNetwork.Students[44].wlan[0].agent 	dropConfirm:count 	0
attr title  "dropped confirms, count"
scalar UniversityNetwork.Students[44].wlan[0].agent 	acceptConfirm:count 	18
attr title  "accepted confirms, count"
scalar UniversityNetwork.Students[44].wlan[0].agent 	sentRequest:count 	18
attr title  "sent requests, count"
scalar UniversityNetwork.Students[44].wlan[0].mgmt 	dropPkByQueue:count 	0
attr interpolationmode  none
attr source  dropPkByQueue
attr title  "packets dropped by queue, count"
scalar UniversityNetwork.Students[44].wlan[0].mgmt 	dropPkByQueue:sum(packetBytes) 	0
attr interpolationmode  none
attr source  dropPkByQueue
attr title  "packets dropped by queue, sum(packetBytes)"
scalar UniversityNetwork.Students[44].wlan[0].mgmt 	dataQueueLen:max 	5
attr interpolationmode  sample-hold
attr title  "data queue length, max"
scalar UniversityNetwork.Students[44].wlan[0].mgmt 	dataQueueLen:timeavg 	0.001437450118262
attr interpolationmode  sample-hold
attr title  "data queue length, timeavg"
scalar UniversityNetwork.Students[44].wlan[0].mac 	"number of received packets" 	9384
scalar UniversityNetwork.Students[44].wlan[0].mac 	"number of collisions" 	47121
scalar UniversityNetwork.Students[44].wlan[0].mac 	"number of internal collisions" 	0
scalar UniversityNetwork.Students[44].wlan[0].mac 	"number of retry for AC 0" 	752
scalar UniversityNetwork.Students[44].wlan[0].mac 	"sent and received bits" 	6287472
scalar UniversityNetwork.Students[44].wlan[0].mac 	"sent packet within AC 0" 	9416
scalar UniversityNetwork.Students[44].wlan[0].mac 	"sent in TXOP " 	0
scalar UniversityNetwork.Students[44].wlan[0].mac 	"sentWithoutRetry AC 0" 	8698
scalar UniversityNetwork.Students[44].wlan[0].mac 	"numGivenUp AC 0" 	0
scalar UniversityNetwork.Students[44].wlan[0].mac 	"numDropped AC 0" 	0
scalar UniversityNetwork.Students[44].wlan[0].mac 	rcvdPkFromHL:count 	9422
attr interpolationmode  none
attr source  packetReceivedFromUpper
attr title  "packets received from higher layer, count"
scalar UniversityNetwork.Students[44].wlan[0].mac 	rcvdPkFromHL:sum(packetBytes) 	785934
attr interpolationmode  none
attr source  packetReceivedFromUpper
attr title  "packets received from higher layer, sum(packetBytes)"
scalar UniversityNetwork.Students[44].wlan[0].mac 	passedUpPk:count 	14366
attr interpolationmode  none
attr source  packetSentToUpper
attr title  "packets passed to higher layer, count"
scalar UniversityNetwork.Students[44].wlan[0].mac 	passedUpPk:sum(packetBytes) 	14618526
attr interpolationmode  none
attr source  packetSentToUpper
attr title  "packets passed to higher layer, sum(packetBytes)"
scalar UniversityNetwork.Students[44].wlan[0].mac 	rcvdPkFromLL:count 	1852650
attr interpolationmode  none
attr source  packetReceivedFromLower
attr title  "packets received from lower layer, count"
scalar UniversityNetwork.Students[44].wlan[0].mac 	rcvdPkFromLL:sum(packetBytes) 	807331742
attr interpolationmode  none
attr source  packetReceivedFromLower
attr title  "packets received from lower layer, sum(packetBytes)"
scalar UniversityNetwork.Students[44].wlan[0].mac 	sentDownPk:count 	19558
attr interpolationmode  none
attr source  packetSentToLower
attr title  "packets sent to lower layer, count"
scalar UniversityNetwork.Students[44].wlan[0].mac 	sentDownPk:sum(packetBytes) 	981542
attr interpolationmode  none
attr source  packetSentToLower
attr title  "packets sent to lower layer, sum(packetBytes)"
scalar UniversityNetwork.Students[44].wlan[0].radio 	lossRate:min 	0
attr interpolationmode  backward-sample-hold
attr title  "packet loss rate, min"
scalar UniversityNetwork.Students[44].wlan[0].radio 	lossRate:max 	0.22
attr interpolationmode  backward-sample-hold
attr title  "packet loss rate, max"
scalar UniversityNetwork.Students[44].wlan[0].radio 	lossRate:timeavg 	0.025521687482979
attr interpolationmode  backward-sample-hold
attr title  "packet loss rate, timeavg"
statistic UniversityNetwork.Students[44].wlan[0].radio 	channelNo:histogram
field count 1
field mean 0
field stddev -nan
field sum 0
field sqrsum 0
field min 0
field max 0
attr interpolationmode  sample-hold
attr title  "channel no, histogram"
bin	-INF	0
bin	-0.5	0
bin	-0.46666666666667	0
bin	-0.43333333333333	0
bin	-0.4	0
bin	-0.36666666666667	0
bin	-0.33333333333333	0
bin	-0.3	0
bin	-0.26666666666667	0
bin	-0.23333333333333	0
bin	-0.2	0
bin	-0.16666666666667	0
bin	-0.13333333333333	0
bin	-0.1	0
bin	-0.066666666666667	0
bin	-0.033333333333333	0
bin	0	1
bin	0.033333333333333	0
bin	0.066666666666667	0
bin	0.1	0
bin	0.13333333333333	0
bin	0.16666666666667	0
bin	0.2	0
bin	0.23333333333333	0
bin	0.26666666666667	0
bin	0.3	0
bin	0.33333333333333	0
bin	0.36666666666667	0
bin	0.4	0
bin	0.43333333333333	0
bin	0.46666666666667	0
bin	0.5	0
scalar UniversityNetwork.Students[44].wlan[0].radio 	radioState:count 	3744153
attr interpolationmode  sample-hold
attr title  "radio state (enum), count"
scalar UniversityNetwork.Students[44].wlan[0].radio 	bitrate:min 	54000000
attr interpolationmode  sample-hold
attr title  "tx bitrate, min"
attr unit  bps
scalar UniversityNetwork.Students[44].wlan[0].radio 	bitrate:max 	54000000
attr interpolationmode  sample-hold
attr title  "tx bitrate, max"
attr unit  bps
scalar UniversityNetwork.Students[44].wlan[0].radio 	bitrate:timeavg 	54000000
attr interpolationmode  sample-hold
attr title  "tx bitrate, timeavg"
attr unit  bps
scalar UniversityNetwork.Students[44].tcpApp[0] 	numActiveSessions:max 	1
attr interpolationmode  sample-hold
attr source  sum(connect)
attr title  "number of active sessions, max"
scalar UniversityNetwork.Students[44].tcpApp[0] 	numActiveSessions:timeavg 	0.48098422349743
attr interpolationmode  sample-hold
attr source  sum(connect)
attr title  "number of active sessions, timeavg"
scalar UniversityNetwork.Students[44].tcpApp[0] 	numSessions:last 	19
attr source  sum(connect+1)/2
attr title  "total number of sessions, last"
scalar UniversityNetwork.Students[44].tcpApp[0] 	sentPk:count 	19
attr interpolationmode  none
attr source  sentPk
attr title  "packets sent, count"
scalar UniversityNetwork.Students[44].tcpApp[0] 	sentPk:sum(packetBytes) 	14250
attr interpolationmode  none
attr source  sentPk
attr title  "packets sent, sum(packetBytes)"
scalar UniversityNetwork.Students[44].tcpApp[0] 	rcvdPk:count 	18
attr interpolationmode  none
attr source  rcvdPk
attr title  "packets received, count"
scalar UniversityNetwork.Students[44].tcpApp[0] 	rcvdPk:sum(packetBytes) 	12109836
attr interpolationmode  none
attr source  rcvdPk
attr title  "packets received, sum(packetBytes)"
statistic UniversityNetwork.Students[44].tcpApp[0] 	endToEndDelay:histogram
field count 18
field mean 8.9209136421347
field stddev 6.0469805631039
field sum 160.57644555842
field sqrsum 2054.1101606071
field min 0.471630404153
field max 26.038911754627
attr interpolationmode  none
attr source  messageAge(rcvdPk)
attr title  "end-to-end delay, histogram"
attr unit  s
bin	-INF	0
bin	-12.312010271084	0
bin	-10.607524847719	0
bin	-8.9030394243541	0
bin	-7.1985540009892	0
bin	-5.4940685776243	0
bin	-3.7895831542593	0
bin	-2.0850977308944	0
bin	-0.38061230752947	2
bin	1.3238731158355	0
bin	3.0283585392004	3
bin	4.7328439625653	1
bin	6.4373293859303	2
bin	8.1418148092952	3
bin	9.8463002326601	3
bin	11.550785656025	2
bin	13.25527107939	0
bin	14.959756502755	1
bin	16.66424192612	0
bin	18.368727349485	0
bin	20.07321277285	0
bin	21.777698196215	0
bin	23.48218361958	0
bin	25.186669042945	1
bin	26.891154466309	0
bin	28.595639889674	0
bin	30.300125313039	0
bin	32.004610736404	0
bin	33.709096159769	0
bin	35.413581583134	0
bin	37.118067006499	0
bin	38.822552429864	0
