version 2
run HundredStudentsNOCCTV-10-20160815-09:19:18-3990
attr configname HundredStudentsNOCCTV
attr datetime 20160815-09:19:18
attr experiment HundredStudentsNOCCTV
attr inifile omnetpp.ini
attr iterationvars ""
attr iterationvars2 $repetition=10
attr measurement ""
attr network UniversityNetwork
attr processid 3990
attr repetition 10
attr replication #10
attr resultdir results
attr runnumber 10
attr seedset 10

scalar UniversityNetwork.CCTV.networkLayer.arp 	initiatedARPResolution:count 	0
attr title  "ARP initiated resolutions, count"
scalar UniversityNetwork.CCTV.networkLayer.arp 	sentReply:count 	0
attr title  "ARP replies sent, count"
scalar UniversityNetwork.CCTV.networkLayer.arp 	sentReq:count 	0
attr title  "ARP request sent, count"
scalar UniversityNetwork.CCTV.networkLayer.arp 	failedARPResolution:count 	0
attr title  "ARP failed resolutions, count"
scalar UniversityNetwork.CCTV.networkLayer.arp 	completedARPResolution:count 	0
attr title  "ARP completed resolutions, count"
scalar UniversityNetwork.CCTV.lo0.lo 	rcvdPkFromHL:count 	0
attr interpolationmode  none
attr source  packetReceivedFromUpper
attr title  "packets received from higher layer, count"
scalar UniversityNetwork.CCTV.lo0.lo 	rcvdPkFromHL:sum(packetBytes) 	0
attr interpolationmode  none
attr source  packetReceivedFromUpper
attr title  "packets received from higher layer, sum(packetBytes)"
scalar UniversityNetwork.CCTV.lo0.lo 	passedUpPk:count 	0
attr interpolationmode  none
attr source  packetSentToUpper
attr title  "packets passed to higher layer, count"
scalar UniversityNetwork.CCTV.lo0.lo 	passedUpPk:sum(packetBytes) 	0
attr interpolationmode  none
attr source  packetSentToUpper
attr title  "packets passed to higher layer, sum(packetBytes)"
scalar UniversityNetwork.CCTV.lo0.lo 	droppedPkBitError:count 	0
attr interpolationmode  none
attr source  dropPkBitError
attr title  "packets dropped/bit error, count"
scalar UniversityNetwork.CCTV.lo0.lo 	droppedPkBitError:sum(packetBytes) 	0
attr interpolationmode  none
attr source  dropPkBitError
attr title  "packets dropped/bit error, sum(packetBytes)"
scalar UniversityNetwork.CCTV.ppp[0].inputHook[0] 	duration 	300
scalar UniversityNetwork.CCTV.ppp[0].inputHook[0] 	"total packets" 	0
scalar UniversityNetwork.CCTV.ppp[0].inputHook[0] 	"total bits" 	0
scalar UniversityNetwork.CCTV.ppp[0].inputHook[0] 	"avg throughput (bit/s)" 	0
scalar UniversityNetwork.CCTV.ppp[0].inputHook[0] 	"avg packets/s" 	0
statistic UniversityNetwork.CCTV.ppp[0].queue 	queueingTime:histogram
field count 0
field mean -nan
field stddev -nan
field sum 0
field sqrsum 0
field min -nan
field max -nan
attr interpolationmode  none
attr title  "queueing time, histogram"
bin	-INF	0
bin	-0.5	0
bin	-0.46666666666667	0
bin	-0.43333333333333	0
bin	-0.4	0
bin	-0.36666666666667	0
bin	-0.33333333333333	0
bin	-0.3	0
bin	-0.26666666666667	0
bin	-0.23333333333333	0
bin	-0.2	0
bin	-0.16666666666667	0
bin	-0.13333333333333	0
bin	-0.1	0
bin	-0.066666666666667	0
bin	-0.033333333333333	0
bin	0	0
bin	0.033333333333333	0
bin	0.066666666666667	0
bin	0.1	0
bin	0.13333333333333	0
bin	0.16666666666667	0
bin	0.2	0
bin	0.23333333333333	0
bin	0.26666666666667	0
bin	0.3	0
bin	0.33333333333333	0
bin	0.36666666666667	0
bin	0.4	0
bin	0.43333333333333	0
bin	0.46666666666667	0
bin	0.5	0
scalar UniversityNetwork.CCTV.ppp[0].queue 	dropPk:count 	0
attr interpolationmode  none
attr source  dropPkByQueue
attr title  "dropped packets, count"
scalar UniversityNetwork.CCTV.ppp[0].queue 	dropPk:sum(packetBytes) 	0
attr interpolationmode  none
attr source  dropPkByQueue
attr title  "dropped packets, sum(packetBytes)"
scalar UniversityNetwork.CCTV.ppp[0].queue 	queueLength:max 	0
attr interpolationmode  sample-hold
attr title  "queue length, max"
scalar UniversityNetwork.CCTV.ppp[0].queue 	queueLength:timeavg 	0
attr interpolationmode  sample-hold
attr title  "queue length, timeavg"
scalar UniversityNetwork.CCTV.ppp[0].queue 	rcvdPk:count 	0
attr interpolationmode  none
attr title  "received packets, count"
scalar UniversityNetwork.CCTV.ppp[0].queue 	rcvdPk:sum(packetBytes) 	0
attr interpolationmode  none
attr title  "received packets, sum(packetBytes)"
scalar UniversityNetwork.CCTV.ppp[0].ppp 	rcvdPkFromHL:count 	0
attr interpolationmode  none
attr source  packetReceivedFromUpper
attr title  "packets received from higher layer, count"
scalar UniversityNetwork.CCTV.ppp[0].ppp 	rcvdPkFromHL:sum(packetBytes) 	0
attr interpolationmode  none
attr source  packetReceivedFromUpper
attr title  "packets received from higher layer, sum(packetBytes)"
scalar UniversityNetwork.CCTV.ppp[0].ppp 	passedUpPk:count 	0
attr interpolationmode  none
attr source  packetSentToUpper
attr title  "packets passed to higher layer, count"
scalar UniversityNetwork.CCTV.ppp[0].ppp 	passedUpPk:sum(packetBytes) 	0
attr interpolationmode  none
attr source  packetSentToUpper
attr title  "packets passed to higher layer, sum(packetBytes)"
scalar UniversityNetwork.CCTV.ppp[0].ppp 	txPk:count 	0
attr interpolationmode  none
attr source  packetSentToLower
attr title  "packets transmitted, count"
scalar UniversityNetwork.CCTV.ppp[0].ppp 	txPk:sum(packetBytes) 	0
attr interpolationmode  none
attr source  packetSentToLower
attr title  "packets transmitted, sum(packetBytes)"
scalar UniversityNetwork.CCTV.ppp[0].ppp 	droppedPkBitError:count 	0
attr interpolationmode  none
attr source  dropPkBitError
attr title  "packets dropped/bit error, count"
scalar UniversityNetwork.CCTV.ppp[0].ppp 	droppedPkBitError:sum(packetBytes) 	0
attr interpolationmode  none
attr source  dropPkBitError
attr title  "packets dropped/bit error, sum(packetBytes)"
scalar UniversityNetwork.CCTV.ppp[0].ppp 	droppedPkIfaceDown:count 	0
attr interpolationmode  none
attr source  dropPkIfaceDown
attr title  "packets dropped/interface down, count"
scalar UniversityNetwork.CCTV.ppp[0].ppp 	droppedPkIfaceDown:sum(packetBytes) 	0
attr interpolationmode  none
attr source  dropPkIfaceDown
attr title  "packets dropped/interface down, sum(packetBytes)"
scalar UniversityNetwork.CCTV.ppp[0].ppp 	rxPkOk:count 	0
attr interpolationmode  none
attr source  rxPkOk
attr title  "packets received OK, count"
scalar UniversityNetwork.CCTV.ppp[0].ppp 	rxPkOk:sum(packetBytes) 	0
attr interpolationmode  none
attr source  rxPkOk
attr title  "packets received OK, sum(packetBytes)"
scalar UniversityNetwork.CCTV.ppp[0].ppp 	txState:timeavg 	0
attr interpolationmode  sample-hold
attr title  "tx state, timeavg"
scalar UniversityNetwork.CCTVMonitoring.networkLayer.arp 	initiatedARPResolution:count 	0
attr title  "ARP initiated resolutions, count"
scalar UniversityNetwork.CCTVMonitoring.networkLayer.arp 	sentReply:count 	0
attr title  "ARP replies sent, count"
scalar UniversityNetwork.CCTVMonitoring.networkLayer.arp 	sentReq:count 	0
attr title  "ARP request sent, count"
scalar UniversityNetwork.CCTVMonitoring.networkLayer.arp 	failedARPResolution:count 	0
attr title  "ARP failed resolutions, count"
scalar UniversityNetwork.CCTVMonitoring.networkLayer.arp 	completedARPResolution:count 	0
attr title  "ARP completed resolutions, count"
scalar UniversityNetwork.CCTVMonitoring.lo0.lo 	rcvdPkFromHL:count 	0
attr interpolationmode  none
attr source  packetReceivedFromUpper
attr title  "packets received from higher layer, count"
scalar UniversityNetwork.CCTVMonitoring.lo0.lo 	rcvdPkFromHL:sum(packetBytes) 	0
attr interpolationmode  none
attr source  packetReceivedFromUpper
attr title  "packets received from higher layer, sum(packetBytes)"
scalar UniversityNetwork.CCTVMonitoring.lo0.lo 	passedUpPk:count 	0
attr interpolationmode  none
attr source  packetSentToUpper
attr title  "packets passed to higher layer, count"
scalar UniversityNetwork.CCTVMonitoring.lo0.lo 	passedUpPk:sum(packetBytes) 	0
attr interpolationmode  none
attr source  packetSentToUpper
attr title  "packets passed to higher layer, sum(packetBytes)"
scalar UniversityNetwork.CCTVMonitoring.lo0.lo 	droppedPkBitError:count 	0
attr interpolationmode  none
attr source  dropPkBitError
attr title  "packets dropped/bit error, count"
scalar UniversityNetwork.CCTVMonitoring.lo0.lo 	droppedPkBitError:sum(packetBytes) 	0
attr interpolationmode  none
attr source  dropPkBitError
attr title  "packets dropped/bit error, sum(packetBytes)"
scalar UniversityNetwork.CCTVMonitoring.ppp[0].inputHook[0] 	duration 	300
scalar UniversityNetwork.CCTVMonitoring.ppp[0].inputHook[0] 	"total packets" 	0
scalar UniversityNetwork.CCTVMonitoring.ppp[0].inputHook[0] 	"total bits" 	0
scalar UniversityNetwork.CCTVMonitoring.ppp[0].inputHook[0] 	"avg throughput (bit/s)" 	0
scalar UniversityNetwork.CCTVMonitoring.ppp[0].inputHook[0] 	"avg packets/s" 	0
statistic UniversityNetwork.CCTVMonitoring.ppp[0].queue 	queueingTime:histogram
field count 0
field mean -nan
field stddev -nan
field sum 0
field sqrsum 0
field min -nan
field max -nan
attr interpolationmode  none
attr title  "queueing time, histogram"
bin	-INF	0
bin	-0.5	0
bin	-0.46666666666667	0
bin	-0.43333333333333	0
bin	-0.4	0
bin	-0.36666666666667	0
bin	-0.33333333333333	0
bin	-0.3	0
bin	-0.26666666666667	0
bin	-0.23333333333333	0
bin	-0.2	0
bin	-0.16666666666667	0
bin	-0.13333333333333	0
bin	-0.1	0
bin	-0.066666666666667	0
bin	-0.033333333333333	0
bin	0	0
bin	0.033333333333333	0
bin	0.066666666666667	0
bin	0.1	0
bin	0.13333333333333	0
bin	0.16666666666667	0
bin	0.2	0
bin	0.23333333333333	0
bin	0.26666666666667	0
bin	0.3	0
bin	0.33333333333333	0
bin	0.36666666666667	0
bin	0.4	0
bin	0.43333333333333	0
bin	0.46666666666667	0
bin	0.5	0
scalar UniversityNetwork.CCTVMonitoring.ppp[0].queue 	dropPk:count 	0
attr interpolationmode  none
attr source  dropPkByQueue
attr title  "dropped packets, count"
scalar UniversityNetwork.CCTVMonitoring.ppp[0].queue 	dropPk:sum(packetBytes) 	0
attr interpolationmode  none
attr source  dropPkByQueue
attr title  "dropped packets, sum(packetBytes)"
scalar UniversityNetwork.CCTVMonitoring.ppp[0].queue 	queueLength:max 	0
attr interpolationmode  sample-hold
attr title  "queue length, max"
scalar UniversityNetwork.CCTVMonitoring.ppp[0].queue 	queueLength:timeavg 	0
attr interpolationmode  sample-hold
attr title  "queue length, timeavg"
scalar UniversityNetwork.CCTVMonitoring.ppp[0].queue 	rcvdPk:count 	0
attr interpolationmode  none
attr title  "received packets, count"
scalar UniversityNetwork.CCTVMonitoring.ppp[0].queue 	rcvdPk:sum(packetBytes) 	0
attr interpolationmode  none
attr title  "received packets, sum(packetBytes)"
scalar UniversityNetwork.CCTVMonitoring.ppp[0].ppp 	rcvdPkFromHL:count 	0
attr interpolationmode  none
attr source  packetReceivedFromUpper
attr title  "packets received from higher layer, count"
scalar UniversityNetwork.CCTVMonitoring.ppp[0].ppp 	rcvdPkFromHL:sum(packetBytes) 	0
attr interpolationmode  none
attr source  packetReceivedFromUpper
attr title  "packets received from higher layer, sum(packetBytes)"
scalar UniversityNetwork.CCTVMonitoring.ppp[0].ppp 	passedUpPk:count 	0
attr interpolationmode  none
attr source  packetSentToUpper
attr title  "packets passed to higher layer, count"
scalar UniversityNetwork.CCTVMonitoring.ppp[0].ppp 	passedUpPk:sum(packetBytes) 	0
attr interpolationmode  none
attr source  packetSentToUpper
attr title  "packets passed to higher layer, sum(packetBytes)"
scalar UniversityNetwork.CCTVMonitoring.ppp[0].ppp 	txPk:count 	0
attr interpolationmode  none
attr source  packetSentToLower
attr title  "packets transmitted, count"
scalar UniversityNetwork.CCTVMonitoring.ppp[0].ppp 	txPk:sum(packetBytes) 	0
attr interpolationmode  none
attr source  packetSentToLower
attr title  "packets transmitted, sum(packetBytes)"
scalar UniversityNetwork.CCTVMonitoring.ppp[0].ppp 	droppedPkBitError:count 	0
attr interpolationmode  none
attr source  dropPkBitError
attr title  "packets dropped/bit error, count"
scalar UniversityNetwork.CCTVMonitoring.ppp[0].ppp 	droppedPkBitError:sum(packetBytes) 	0
attr interpolationmode  none
attr source  dropPkBitError
attr title  "packets dropped/bit error, sum(packetBytes)"
scalar UniversityNetwork.CCTVMonitoring.ppp[0].ppp 	droppedPkIfaceDown:count 	0
attr interpolationmode  none
attr source  dropPkIfaceDown
attr title  "packets dropped/interface down, count"
scalar UniversityNetwork.CCTVMonitoring.ppp[0].ppp 	droppedPkIfaceDown:sum(packetBytes) 	0
attr interpolationmode  none
attr source  dropPkIfaceDown
attr title  "packets dropped/interface down, sum(packetBytes)"
scalar UniversityNetwork.CCTVMonitoring.ppp[0].ppp 	rxPkOk:count 	0
attr interpolationmode  none
attr source  rxPkOk
attr title  "packets received OK, count"
scalar UniversityNetwork.CCTVMonitoring.ppp[0].ppp 	rxPkOk:sum(packetBytes) 	0
attr interpolationmode  none
attr source  rxPkOk
attr title  "packets received OK, sum(packetBytes)"
scalar UniversityNetwork.CCTVMonitoring.ppp[0].ppp 	txState:timeavg 	0
attr interpolationmode  sample-hold
attr title  "tx state, timeavg"
scalar UniversityNetwork.main.networkLayer.arp 	initiatedARPResolution:count 	0
attr title  "ARP initiated resolutions, count"
scalar UniversityNetwork.main.networkLayer.arp 	sentReply:count 	0
attr title  "ARP replies sent, count"
scalar UniversityNetwork.main.networkLayer.arp 	sentReq:count 	0
attr title  "ARP request sent, count"
scalar UniversityNetwork.main.networkLayer.arp 	failedARPResolution:count 	0
attr title  "ARP failed resolutions, count"
scalar UniversityNetwork.main.networkLayer.arp 	completedARPResolution:count 	0
attr title  "ARP completed resolutions, count"
scalar UniversityNetwork.main.lo0.lo 	rcvdPkFromHL:count 	0
attr interpolationmode  none
attr source  packetReceivedFromUpper
attr title  "packets received from higher layer, count"
scalar UniversityNetwork.main.lo0.lo 	rcvdPkFromHL:sum(packetBytes) 	0
attr interpolationmode  none
attr source  packetReceivedFromUpper
attr title  "packets received from higher layer, sum(packetBytes)"
scalar UniversityNetwork.main.lo0.lo 	passedUpPk:count 	0
attr interpolationmode  none
attr source  packetSentToUpper
attr title  "packets passed to higher layer, count"
scalar UniversityNetwork.main.lo0.lo 	passedUpPk:sum(packetBytes) 	0
attr interpolationmode  none
attr source  packetSentToUpper
attr title  "packets passed to higher layer, sum(packetBytes)"
scalar UniversityNetwork.main.lo0.lo 	droppedPkBitError:count 	0
attr interpolationmode  none
attr source  dropPkBitError
attr title  "packets dropped/bit error, count"
scalar UniversityNetwork.main.lo0.lo 	droppedPkBitError:sum(packetBytes) 	0
attr interpolationmode  none
attr source  dropPkBitError
attr title  "packets dropped/bit error, sum(packetBytes)"
scalar UniversityNetwork.main.ppp[0].inputHook[0] 	duration 	300
scalar UniversityNetwork.main.ppp[0].inputHook[0] 	"total packets" 	281314
scalar UniversityNetwork.main.ppp[0].inputHook[0] 	"total bits" 	184189168
scalar UniversityNetwork.main.ppp[0].inputHook[0] 	"avg throughput (bit/s)" 	613963.89333333
scalar UniversityNetwork.main.ppp[0].inputHook[0] 	"avg packets/s" 	937.71333333333
statistic UniversityNetwork.main.ppp[0].queue 	queueingTime:histogram
field count 294650
field mean 0.01168514387939
field stddev 0.011096224446198
field sum 3443.0276440623
field sqrsum 76.511284209768
field min 0
field max 0.040186358434
attr interpolationmode  none
attr title  "queueing time, histogram"
bin	-INF	0
bin	-0.0005907699755	0
bin	-0.00051200064543333	0
bin	-0.00043323131536667	0
bin	-0.0003544619853	0
bin	-0.00027569265523333	0
bin	-0.00019692332516667	0
bin	-0.0001181539951	0
bin	-3.9384665033333e-05	17582
bin	3.9384665033333e-05	1357
bin	0.0001181539951	1014
bin	0.00019692332516667	883
bin	0.00027569265523333	1131
bin	0.0003544619853	1335
bin	0.00043323131536667	1110
bin	0.00051200064543333	1773
bin	0.0005907699755	2566
bin	0.00066953930556667	1239
bin	0.00074830863563333	1156
bin	0.0008270779657	4515
bin	0.00090584729576667	3523
bin	0.00098461662583333	2935
bin	0.0010633859559	1433
bin	0.0011421552859667	1589
bin	0.0012209246160333	1662
bin	0.0012996939461	1635
bin	0.0013784632761667	1537
bin	0.0014572326062333	1932
bin	0.0015360019363	2002
bin	0.0016147712663667	1602
bin	0.0016935405964333	1562
bin	0.0017723099265	237577
scalar UniversityNetwork.main.ppp[0].queue 	dropPk:count 	2994
attr interpolationmode  none
attr source  dropPkByQueue
attr title  "dropped packets, count"
scalar UniversityNetwork.main.ppp[0].queue 	dropPk:sum(packetBytes) 	4424421
attr interpolationmode  none
attr source  dropPkByQueue
attr title  "dropped packets, sum(packetBytes)"
scalar UniversityNetwork.main.ppp[0].queue 	queueLength:max 	40
attr interpolationmode  sample-hold
attr title  "queue length, max"
scalar UniversityNetwork.main.ppp[0].queue 	queueLength:timeavg 	11.477556173997
attr interpolationmode  sample-hold
attr title  "queue length, timeavg"
scalar UniversityNetwork.main.ppp[0].queue 	rcvdPk:count 	297663
attr interpolationmode  none
attr title  "received packets, count"
scalar UniversityNetwork.main.ppp[0].queue 	rcvdPk:sum(packetBytes) 	432992176
attr interpolationmode  none
attr title  "received packets, sum(packetBytes)"
scalar UniversityNetwork.main.ppp[0].ppp 	rcvdPkFromHL:count 	294650
attr interpolationmode  none
attr source  packetReceivedFromUpper
attr title  "packets received from higher layer, count"
scalar UniversityNetwork.main.ppp[0].ppp 	rcvdPkFromHL:sum(packetBytes) 	428539969
attr interpolationmode  none
attr source  packetReceivedFromUpper
attr title  "packets received from higher layer, sum(packetBytes)"
scalar UniversityNetwork.main.ppp[0].ppp 	passedUpPk:count 	281314
attr interpolationmode  none
attr source  packetSentToUpper
attr title  "packets passed to higher layer, count"
scalar UniversityNetwork.main.ppp[0].ppp 	passedUpPk:sum(packetBytes) 	23023646
attr interpolationmode  none
attr source  packetSentToUpper
attr title  "packets passed to higher layer, sum(packetBytes)"
scalar UniversityNetwork.main.ppp[0].ppp 	txPk:count 	294650
attr interpolationmode  none
attr source  packetSentToLower
attr title  "packets transmitted, count"
scalar UniversityNetwork.main.ppp[0].ppp 	txPk:sum(packetBytes) 	430602519
attr interpolationmode  none
attr source  packetSentToLower
attr title  "packets transmitted, sum(packetBytes)"
scalar UniversityNetwork.main.ppp[0].ppp 	droppedPkBitError:count 	0
attr interpolationmode  none
attr source  dropPkBitError
attr title  "packets dropped/bit error, count"
scalar UniversityNetwork.main.ppp[0].ppp 	droppedPkBitError:sum(packetBytes) 	0
attr interpolationmode  none
attr source  dropPkBitError
attr title  "packets dropped/bit error, sum(packetBytes)"
scalar UniversityNetwork.main.ppp[0].ppp 	droppedPkIfaceDown:count 	0
attr interpolationmode  none
attr source  dropPkIfaceDown
attr title  "packets dropped/interface down, count"
scalar UniversityNetwork.main.ppp[0].ppp 	droppedPkIfaceDown:sum(packetBytes) 	0
attr interpolationmode  none
attr source  dropPkIfaceDown
attr title  "packets dropped/interface down, sum(packetBytes)"
scalar UniversityNetwork.main.ppp[0].ppp 	rxPkOk:count 	281314
attr interpolationmode  none
attr source  rxPkOk
attr title  "packets received OK, count"
scalar UniversityNetwork.main.ppp[0].ppp 	rxPkOk:sum(packetBytes) 	24992844
attr interpolationmode  none
attr source  rxPkOk
attr title  "packets received OK, sum(packetBytes)"
scalar UniversityNetwork.main.ppp[0].ppp 	txState:timeavg 	0.9568938944751
attr interpolationmode  sample-hold
attr title  "tx state, timeavg"
scalar UniversityNetwork.main.ppp[1].inputHook[0] 	duration 	300
scalar UniversityNetwork.main.ppp[1].inputHook[0] 	"total packets" 	0
scalar UniversityNetwork.main.ppp[1].inputHook[0] 	"total bits" 	0
scalar UniversityNetwork.main.ppp[1].inputHook[0] 	"avg throughput (bit/s)" 	0
scalar UniversityNetwork.main.ppp[1].inputHook[0] 	"avg packets/s" 	0
statistic UniversityNetwork.main.ppp[1].queue 	queueingTime:histogram
field count 0
field mean -nan
field stddev -nan
field sum 0
field sqrsum 0
field min -nan
field max -nan
attr interpolationmode  none
attr title  "queueing time, histogram"
bin	-INF	0
bin	-0.5	0
bin	-0.46666666666667	0
bin	-0.43333333333333	0
bin	-0.4	0
bin	-0.36666666666667	0
bin	-0.33333333333333	0
bin	-0.3	0
bin	-0.26666666666667	0
bin	-0.23333333333333	0
bin	-0.2	0
bin	-0.16666666666667	0
bin	-0.13333333333333	0
bin	-0.1	0
bin	-0.066666666666667	0
bin	-0.033333333333333	0
bin	0	0
bin	0.033333333333333	0
bin	0.066666666666667	0
bin	0.1	0
bin	0.13333333333333	0
bin	0.16666666666667	0
bin	0.2	0
bin	0.23333333333333	0
bin	0.26666666666667	0
bin	0.3	0
bin	0.33333333333333	0
bin	0.36666666666667	0
bin	0.4	0
bin	0.43333333333333	0
bin	0.46666666666667	0
bin	0.5	0
scalar UniversityNetwork.main.ppp[1].queue 	dropPk:count 	0
attr interpolationmode  none
attr source  dropPkByQueue
attr title  "dropped packets, count"
scalar UniversityNetwork.main.ppp[1].queue 	dropPk:sum(packetBytes) 	0
attr interpolationmode  none
attr source  dropPkByQueue
attr title  "dropped packets, sum(packetBytes)"
scalar UniversityNetwork.main.ppp[1].queue 	queueLength:max 	0
attr interpolationmode  sample-hold
attr title  "queue length, max"
scalar UniversityNetwork.main.ppp[1].queue 	queueLength:timeavg 	0
attr interpolationmode  sample-hold
attr title  "queue length, timeavg"
scalar UniversityNetwork.main.ppp[1].queue 	rcvdPk:count 	0
attr interpolationmode  none
attr title  "received packets, count"
scalar UniversityNetwork.main.ppp[1].queue 	rcvdPk:sum(packetBytes) 	0
attr interpolationmode  none
attr title  "received packets, sum(packetBytes)"
scalar UniversityNetwork.main.ppp[1].ppp 	rcvdPkFromHL:count 	0
attr interpolationmode  none
attr source  packetReceivedFromUpper
attr title  "packets received from higher layer, count"
scalar UniversityNetwork.main.ppp[1].ppp 	rcvdPkFromHL:sum(packetBytes) 	0
attr interpolationmode  none
attr source  packetReceivedFromUpper
attr title  "packets received from higher layer, sum(packetBytes)"
scalar UniversityNetwork.main.ppp[1].ppp 	passedUpPk:count 	0
attr interpolationmode  none
attr source  packetSentToUpper
attr title  "packets passed to higher layer, count"
scalar UniversityNetwork.main.ppp[1].ppp 	passedUpPk:sum(packetBytes) 	0
attr interpolationmode  none
attr source  packetSentToUpper
attr title  "packets passed to higher layer, sum(packetBytes)"
scalar UniversityNetwork.main.ppp[1].ppp 	txPk:count 	0
attr interpolationmode  none
attr source  packetSentToLower
attr title  "packets transmitted, count"
scalar UniversityNetwork.main.ppp[1].ppp 	txPk:sum(packetBytes) 	0
attr interpolationmode  none
attr source  packetSentToLower
attr title  "packets transmitted, sum(packetBytes)"
scalar UniversityNetwork.main.ppp[1].ppp 	droppedPkBitError:count 	0
attr interpolationmode  none
attr source  dropPkBitError
attr title  "packets dropped/bit error, count"
scalar UniversityNetwork.main.ppp[1].ppp 	droppedPkBitError:sum(packetBytes) 	0
attr interpolationmode  none
attr source  dropPkBitError
attr title  "packets dropped/bit error, sum(packetBytes)"
scalar UniversityNetwork.main.ppp[1].ppp 	droppedPkIfaceDown:count 	0
attr interpolationmode  none
attr source  dropPkIfaceDown
attr title  "packets dropped/interface down, count"
scalar UniversityNetwork.main.ppp[1].ppp 	droppedPkIfaceDown:sum(packetBytes) 	0
attr interpolationmode  none
attr source  dropPkIfaceDown
attr title  "packets dropped/interface down, sum(packetBytes)"
scalar UniversityNetwork.main.ppp[1].ppp 	rxPkOk:count 	0
attr interpolationmode  none
attr source  rxPkOk
attr title  "packets received OK, count"
scalar UniversityNetwork.main.ppp[1].ppp 	rxPkOk:sum(packetBytes) 	0
attr interpolationmode  none
attr source  rxPkOk
attr title  "packets received OK, sum(packetBytes)"
scalar UniversityNetwork.main.ppp[1].ppp 	txState:timeavg 	0
attr interpolationmode  sample-hold
attr title  "tx state, timeavg"
scalar UniversityNetwork.main.ppp[2].inputHook[0] 	duration 	300
scalar UniversityNetwork.main.ppp[2].inputHook[0] 	"total packets" 	290164
scalar UniversityNetwork.main.ppp[2].inputHook[0] 	"total bits" 	3378268832
scalar UniversityNetwork.main.ppp[2].inputHook[0] 	"avg throughput (bit/s)" 	11260896.106667
scalar UniversityNetwork.main.ppp[2].inputHook[0] 	"avg packets/s" 	967.21333333333
statistic UniversityNetwork.main.ppp[2].queue 	queueingTime:histogram
field count 273816
field mean 7.6552455838958e-08
field stddev 2.5132118512133e-06
field sum 0.020961287248
field sqrsum 1.7310841984494e-06
field min 0
field max 8.9226667e-05
attr interpolationmode  none
attr title  "queueing time, histogram"
bin	-INF	0
bin	-0.5	0
bin	-0.46666666666667	0
bin	-0.43333333333333	0
bin	-0.4	0
bin	-0.36666666666667	0
bin	-0.33333333333333	0
bin	-0.3	0
bin	-0.26666666666667	0
bin	-0.23333333333333	0
bin	-0.2	0
bin	-0.16666666666667	0
bin	-0.13333333333333	0
bin	-0.1	0
bin	-0.066666666666667	0
bin	-0.033333333333333	0
bin	0	273816
bin	0.033333333333333	0
bin	0.066666666666667	0
bin	0.1	0
bin	0.13333333333333	0
bin	0.16666666666667	0
bin	0.2	0
bin	0.23333333333333	0
bin	0.26666666666667	0
bin	0.3	0
bin	0.33333333333333	0
bin	0.36666666666667	0
bin	0.4	0
bin	0.43333333333333	0
bin	0.46666666666667	0
bin	0.5	0
scalar UniversityNetwork.main.ppp[2].queue 	dropPk:count 	0
attr interpolationmode  none
attr source  dropPkByQueue
attr title  "dropped packets, count"
scalar UniversityNetwork.main.ppp[2].queue 	dropPk:sum(packetBytes) 	0
attr interpolationmode  none
attr source  dropPkByQueue
attr title  "dropped packets, sum(packetBytes)"
scalar UniversityNetwork.main.ppp[2].queue 	queueLength:max 	3
attr interpolationmode  sample-hold
attr title  "queue length, max"
scalar UniversityNetwork.main.ppp[2].queue 	queueLength:timeavg 	6.9870957493333e-05
attr interpolationmode  sample-hold
attr title  "queue length, timeavg"
scalar UniversityNetwork.main.ppp[2].queue 	rcvdPk:count 	273816
attr interpolationmode  none
attr title  "received packets, count"
scalar UniversityNetwork.main.ppp[2].queue 	rcvdPk:sum(packetBytes) 	12316502
attr interpolationmode  none
attr title  "received packets, sum(packetBytes)"
scalar UniversityNetwork.main.ppp[2].ppp 	rcvdPkFromHL:count 	273816
attr interpolationmode  none
attr source  packetReceivedFromUpper
attr title  "packets received from higher layer, count"
scalar UniversityNetwork.main.ppp[2].ppp 	rcvdPkFromHL:sum(packetBytes) 	12316502
attr interpolationmode  none
attr source  packetReceivedFromUpper
attr title  "packets received from higher layer, sum(packetBytes)"
scalar UniversityNetwork.main.ppp[2].ppp 	passedUpPk:count 	290164
attr interpolationmode  none
attr source  packetSentToUpper
attr title  "packets passed to higher layer, count"
scalar UniversityNetwork.main.ppp[2].ppp 	passedUpPk:sum(packetBytes) 	422283604
attr interpolationmode  none
attr source  packetSentToUpper
attr title  "packets passed to higher layer, sum(packetBytes)"
scalar UniversityNetwork.main.ppp[2].ppp 	txPk:count 	273816
attr interpolationmode  none
attr source  packetSentToLower
attr title  "packets transmitted, count"
scalar UniversityNetwork.main.ppp[2].ppp 	txPk:sum(packetBytes) 	14233214
attr interpolationmode  none
attr source  packetSentToLower
attr title  "packets transmitted, sum(packetBytes)"
scalar UniversityNetwork.main.ppp[2].ppp 	droppedPkBitError:count 	0
attr interpolationmode  none
attr source  dropPkBitError
attr title  "packets dropped/bit error, count"
scalar UniversityNetwork.main.ppp[2].ppp 	droppedPkBitError:sum(packetBytes) 	0
attr interpolationmode  none
attr source  dropPkBitError
attr title  "packets dropped/bit error, sum(packetBytes)"
scalar UniversityNetwork.main.ppp[2].ppp 	droppedPkIfaceDown:count 	0
attr interpolationmode  none
attr source  dropPkIfaceDown
attr title  "packets dropped/interface down, count"
scalar UniversityNetwork.main.ppp[2].ppp 	droppedPkIfaceDown:sum(packetBytes) 	0
attr interpolationmode  none
attr source  dropPkIfaceDown
attr title  "packets dropped/interface down, sum(packetBytes)"
scalar UniversityNetwork.main.ppp[2].ppp 	rxPkOk:count 	290164
attr interpolationmode  none
attr source  rxPkOk
attr title  "packets received OK, count"
scalar UniversityNetwork.main.ppp[2].ppp 	rxPkOk:sum(packetBytes) 	424314752
attr interpolationmode  none
attr source  rxPkOk
attr title  "packets received OK, sum(packetBytes)"
scalar UniversityNetwork.main.ppp[2].ppp 	txState:timeavg 	0.003795523733347
attr interpolationmode  sample-hold
attr title  "tx state, timeavg"
scalar UniversityNetwork.main.ppp[3].inputHook[0] 	duration 	300
scalar UniversityNetwork.main.ppp[3].inputHook[0] 	"total packets" 	7499
scalar UniversityNetwork.main.ppp[3].inputHook[0] 	"total bits" 	85668576
scalar UniversityNetwork.main.ppp[3].inputHook[0] 	"avg throughput (bit/s)" 	285561.92
scalar UniversityNetwork.main.ppp[3].inputHook[0] 	"avg packets/s" 	24.996666666667
statistic UniversityNetwork.main.ppp[3].queue 	queueingTime:histogram
field count 7498
field mean 0
field stddev 0
field sum 0
field sqrsum 0
field min 0
field max 0
attr interpolationmode  none
attr title  "queueing time, histogram"
bin	-INF	0
bin	-0.5	0
bin	-0.46666666666667	0
bin	-0.43333333333333	0
bin	-0.4	0
bin	-0.36666666666667	0
bin	-0.33333333333333	0
bin	-0.3	0
bin	-0.26666666666667	0
bin	-0.23333333333333	0
bin	-0.2	0
bin	-0.16666666666667	0
bin	-0.13333333333333	0
bin	-0.1	0
bin	-0.066666666666667	0
bin	-0.033333333333333	0
bin	0	7498
bin	0.033333333333333	0
bin	0.066666666666667	0
bin	0.1	0
bin	0.13333333333333	0
bin	0.16666666666667	0
bin	0.2	0
bin	0.23333333333333	0
bin	0.26666666666667	0
bin	0.3	0
bin	0.33333333333333	0
bin	0.36666666666667	0
bin	0.4	0
bin	0.43333333333333	0
bin	0.46666666666667	0
bin	0.5	0
scalar UniversityNetwork.main.ppp[3].queue 	dropPk:count 	0
attr interpolationmode  none
attr source  dropPkByQueue
attr title  "dropped packets, count"
scalar UniversityNetwork.main.ppp[3].queue 	dropPk:sum(packetBytes) 	0
attr interpolationmode  none
attr source  dropPkByQueue
attr title  "dropped packets, sum(packetBytes)"
scalar UniversityNetwork.main.ppp[3].queue 	queueLength:max 	0
attr interpolationmode  sample-hold
attr title  "queue length, max"
scalar UniversityNetwork.main.ppp[3].queue 	queueLength:timeavg 	0
attr interpolationmode  sample-hold
attr title  "queue length, timeavg"
scalar UniversityNetwork.main.ppp[3].queue 	rcvdPk:count 	7498
attr interpolationmode  none
attr title  "received packets, count"
scalar UniversityNetwork.main.ppp[3].queue 	rcvdPk:sum(packetBytes) 	10707144
attr interpolationmode  none
attr title  "received packets, sum(packetBytes)"
scalar UniversityNetwork.main.ppp[3].ppp 	rcvdPkFromHL:count 	7498
attr interpolationmode  none
attr source  packetReceivedFromUpper
attr title  "packets received from higher layer, count"
scalar UniversityNetwork.main.ppp[3].ppp 	rcvdPkFromHL:sum(packetBytes) 	10707144
attr interpolationmode  none
attr source  packetReceivedFromUpper
attr title  "packets received from higher layer, sum(packetBytes)"
scalar UniversityNetwork.main.ppp[3].ppp 	passedUpPk:count 	7499
attr interpolationmode  none
attr source  packetSentToUpper
attr title  "packets passed to higher layer, count"
scalar UniversityNetwork.main.ppp[3].ppp 	passedUpPk:sum(packetBytes) 	10708572
attr interpolationmode  none
attr source  packetSentToUpper
attr title  "packets passed to higher layer, sum(packetBytes)"
scalar UniversityNetwork.main.ppp[3].ppp 	txPk:count 	7498
attr interpolationmode  none
attr source  packetSentToLower
attr title  "packets transmitted, count"
scalar UniversityNetwork.main.ppp[3].ppp 	txPk:sum(packetBytes) 	10759630
attr interpolationmode  none
attr source  packetSentToLower
attr title  "packets transmitted, sum(packetBytes)"
scalar UniversityNetwork.main.ppp[3].ppp 	droppedPkBitError:count 	0
attr interpolationmode  none
attr source  dropPkBitError
attr title  "packets dropped/bit error, count"
scalar UniversityNetwork.main.ppp[3].ppp 	droppedPkBitError:sum(packetBytes) 	0
attr interpolationmode  none
attr source  dropPkBitError
attr title  "packets dropped/bit error, sum(packetBytes)"
scalar UniversityNetwork.main.ppp[3].ppp 	droppedPkIfaceDown:count 	0
attr interpolationmode  none
attr source  dropPkIfaceDown
attr title  "packets dropped/interface down, count"
scalar UniversityNetwork.main.ppp[3].ppp 	droppedPkIfaceDown:sum(packetBytes) 	0
attr interpolationmode  none
attr source  dropPkIfaceDown
attr title  "packets dropped/interface down, sum(packetBytes)"
scalar UniversityNetwork.main.ppp[3].ppp 	rxPkOk:count 	7499
attr interpolationmode  none
attr source  rxPkOk
attr title  "packets received OK, count"
scalar UniversityNetwork.main.ppp[3].ppp 	rxPkOk:sum(packetBytes) 	10761065
attr interpolationmode  none
attr source  rxPkOk
attr title  "packets received OK, sum(packetBytes)"
scalar UniversityNetwork.main.ppp[3].ppp 	txState:timeavg 	0.0028692346666665
attr interpolationmode  sample-hold
attr title  "tx state, timeavg"
scalar UniversityNetwork.remote.networkLayer.arp 	initiatedARPResolution:count 	101
attr title  "ARP initiated resolutions, count"
scalar UniversityNetwork.remote.networkLayer.arp 	sentReply:count 	745
attr title  "ARP replies sent, count"
scalar UniversityNetwork.remote.networkLayer.arp 	sentReq:count 	120
attr title  "ARP request sent, count"
scalar UniversityNetwork.remote.networkLayer.arp 	failedARPResolution:count 	2
attr title  "ARP failed resolutions, count"
scalar UniversityNetwork.remote.networkLayer.arp 	completedARPResolution:count 	843
attr title  "ARP completed resolutions, count"
scalar UniversityNetwork.remote.lo0.lo 	rcvdPkFromHL:count 	0
attr interpolationmode  none
attr source  packetReceivedFromUpper
attr title  "packets received from higher layer, count"
scalar UniversityNetwork.remote.lo0.lo 	rcvdPkFromHL:sum(packetBytes) 	0
attr interpolationmode  none
attr source  packetReceivedFromUpper
attr title  "packets received from higher layer, sum(packetBytes)"
scalar UniversityNetwork.remote.lo0.lo 	passedUpPk:count 	0
attr interpolationmode  none
attr source  packetSentToUpper
attr title  "packets passed to higher layer, count"
scalar UniversityNetwork.remote.lo0.lo 	passedUpPk:sum(packetBytes) 	0
attr interpolationmode  none
attr source  packetSentToUpper
attr title  "packets passed to higher layer, sum(packetBytes)"
scalar UniversityNetwork.remote.lo0.lo 	droppedPkBitError:count 	0
attr interpolationmode  none
attr source  dropPkBitError
attr title  "packets dropped/bit error, count"
scalar UniversityNetwork.remote.lo0.lo 	droppedPkBitError:sum(packetBytes) 	0
attr interpolationmode  none
attr source  dropPkBitError
attr title  "packets dropped/bit error, sum(packetBytes)"
scalar UniversityNetwork.remote.eth[0].mac 	"simulated time" 	300
scalar UniversityNetwork.remote.eth[0].mac 	full-duplex 	1
scalar UniversityNetwork.remote.eth[0].mac 	"frames/sec sent" 	985.00333333333
scalar UniversityNetwork.remote.eth[0].mac 	"frames/sec rcvd" 	940.55333333333
scalar UniversityNetwork.remote.eth[0].mac 	"bits/sec sent" 	11570808.053333
scalar UniversityNetwork.remote.eth[0].mac 	"bits/sec rcvd" 	789571.14666667
scalar UniversityNetwork.remote.eth[0].mac 	"rx channel idle (%)" 	99.15023344
scalar UniversityNetwork.remote.eth[0].mac 	"rx channel utilization (%)" 	0.84976656
scalar UniversityNetwork.remote.eth[0].mac 	rxPkFromHL:count 	295501
attr interpolationmode  none
attr source  rxPkFromHL
attr title  "packet bytes from higher layer, count"
scalar UniversityNetwork.remote.eth[0].mac 	rxPkFromHL:sum(packetBytes) 	433905302
attr interpolationmode  none
attr source  rxPkFromHL
attr title  "packet bytes from higher layer, sum(packetBytes)"
scalar UniversityNetwork.remote.eth[0].mac 	rxPausePkUnits:count 	0
attr interpolationmode  none
attr title  "pause units received, count"
scalar UniversityNetwork.remote.eth[0].mac 	rxPausePkUnits:sum 	0
attr interpolationmode  none
attr title  "pause units received, sum"
scalar UniversityNetwork.remote.eth[0].mac 	txPausePkUnits:count 	0
attr interpolationmode  none
attr title  "pause units sent, count"
scalar UniversityNetwork.remote.eth[0].mac 	txPausePkUnits:sum 	0
attr interpolationmode  none
attr title  "pause units sent, sum"
scalar UniversityNetwork.remote.eth[0].mac 	txPk:count 	295501
attr interpolationmode  none
attr source  txPk
attr title  "packets transmitted, count"
scalar UniversityNetwork.remote.eth[0].mac 	txPk:sum(packetBytes) 	433905302
attr interpolationmode  none
attr source  txPk
attr title  "packets transmitted, sum(packetBytes)"
scalar UniversityNetwork.remote.eth[0].mac 	droppedPkNotForUs:count 	0
attr interpolationmode  none
attr source  dropPkNotForUs
attr title  "packets dropped/not for us, count"
scalar UniversityNetwork.remote.eth[0].mac 	droppedPkNotForUs:sum(packetBytes) 	0
attr interpolationmode  none
attr source  dropPkNotForUs
attr title  "packets dropped/not for us, sum(packetBytes)"
scalar UniversityNetwork.remote.eth[0].mac 	passedUpPk:count 	282166
attr interpolationmode  none
attr source  packetSentToUpper
attr title  "packets passed to higher layer, count"
scalar UniversityNetwork.remote.eth[0].mac 	passedUpPk:sum(packetBytes) 	29608918
attr interpolationmode  none
attr source  packetSentToUpper
attr title  "packets passed to higher layer, sum(packetBytes)"
scalar UniversityNetwork.remote.eth[0].mac 	droppedPkBitError:count 	0
attr interpolationmode  none
attr source  dropPkBitError
attr title  "packets dropped/bit error, count"
scalar UniversityNetwork.remote.eth[0].mac 	droppedPkBitError:sum(packetBytes) 	0
attr interpolationmode  none
attr source  dropPkBitError
attr title  "packets dropped/bit error, sum(packetBytes)"
scalar UniversityNetwork.remote.eth[0].mac 	droppedPkIfaceDown:count 	0
attr interpolationmode  none
attr source  dropPkIfaceDown
attr title  "packets dropped/interface down, count"
scalar UniversityNetwork.remote.eth[0].mac 	droppedPkIfaceDown:sum(packetBytes) 	0
attr interpolationmode  none
attr source  dropPkIfaceDown
attr title  "packets dropped/interface down, sum(packetBytes)"
scalar UniversityNetwork.remote.eth[0].mac 	rxPkOk:count 	282166
attr interpolationmode  none
attr source  rxPkOk
attr title  "packets received OK, count"
scalar UniversityNetwork.remote.eth[0].mac 	rxPkOk:sum(packetBytes) 	29608918
attr interpolationmode  none
attr source  rxPkOk
attr title  "packets received OK, sum(packetBytes)"
scalar UniversityNetwork.remote.eth[0].encap 	pauseSent:count 	0
attr title  "pause sent, count"
scalar UniversityNetwork.remote.eth[0].encap 	pauseSent:sum 	0
attr title  "pause sent, sum"
scalar UniversityNetwork.remote.eth[0].encap 	decapPk:count 	282166
attr interpolationmode  none
attr source  decapPk
attr title  "packets decapsulated, count"
scalar UniversityNetwork.remote.eth[0].encap 	decapPk:sum(packetBytes) 	23047610
attr interpolationmode  none
attr source  decapPk
attr title  "packets decapsulated, sum(packetBytes)"
scalar UniversityNetwork.remote.eth[0].encap 	encapPk:count 	295501
attr interpolationmode  none
attr source  encapPk
attr title  "packets encapsulated, count"
scalar UniversityNetwork.remote.eth[0].encap 	encapPk:sum(packetBytes) 	428547085
attr interpolationmode  none
attr source  encapPk
attr title  "packets encapsulated, sum(packetBytes)"
scalar UniversityNetwork.remote.ppp[0].inputHook[0] 	duration 	300
scalar UniversityNetwork.remote.ppp[0].inputHook[0] 	"total packets" 	294639
scalar UniversityNetwork.remote.ppp[0].inputHook[0] 	"total bits" 	3428187752
scalar UniversityNetwork.remote.ppp[0].inputHook[0] 	"avg throughput (bit/s)" 	11427292.506667
scalar UniversityNetwork.remote.ppp[0].inputHook[0] 	"avg packets/s" 	982.13
statistic UniversityNetwork.remote.ppp[0].queue 	queueingTime:histogram
field count 281323
field mean 5.4354851173918e-06
field stddev 6.4615516921612e-05
field sum 1.52912697968
field sqrsum 0.0011828773226796
field min 0
field max 0.004925477555
attr interpolationmode  none
attr title  "queueing time, histogram"
bin	-INF	0
bin	-2.5785635e-05	0
bin	-2.2347550333333e-05	0
bin	-1.8909465666667e-05	0
bin	-1.5471381e-05	0
bin	-1.2033296333333e-05	0
bin	-8.5952116666667e-06	0
bin	-5.157127e-06	0
bin	-1.7190423333333e-06	274127
bin	1.7190423333333e-06	4
bin	5.157127e-06	1
bin	8.5952116666667e-06	71
bin	1.2033296333333e-05	0
bin	1.5471381e-05	184
bin	1.8909465666667e-05	4
bin	2.2347550333333e-05	2
bin	2.5785635e-05	420
bin	2.9223719666667e-05	3
bin	3.2661804333333e-05	3
bin	3.6099889e-05	579
bin	3.9537973666667e-05	3
bin	4.2976058333333e-05	768
bin	4.6414143e-05	1
bin	4.9852227666667e-05	2
bin	5.3290312333333e-05	921
bin	5.6728397e-05	8
bin	6.0166481666667e-05	3
bin	6.3604566333333e-05	977
bin	6.7042651e-05	2
bin	7.0480735666667e-05	1037
bin	7.3918820333333e-05	3
bin	7.7356905e-05	2200
scalar UniversityNetwork.remote.ppp[0].queue 	dropPk:count 	0
attr interpolationmode  none
attr source  dropPkByQueue
attr title  "dropped packets, count"
scalar UniversityNetwork.remote.ppp[0].queue 	dropPk:sum(packetBytes) 	0
attr interpolationmode  none
attr source  dropPkByQueue
attr title  "dropped packets, sum(packetBytes)"
scalar UniversityNetwork.remote.ppp[0].queue 	queueLength:max 	5
attr interpolationmode  sample-hold
attr title  "queue length, max"
scalar UniversityNetwork.remote.ppp[0].queue 	queueLength:timeavg 	0.0050970899322667
attr interpolationmode  sample-hold
attr title  "queue length, timeavg"
scalar UniversityNetwork.remote.ppp[0].queue 	rcvdPk:count 	281323
attr interpolationmode  none
attr title  "received packets, count"
scalar UniversityNetwork.remote.ppp[0].queue 	rcvdPk:sum(packetBytes) 	23024006
attr interpolationmode  none
attr title  "received packets, sum(packetBytes)"
scalar UniversityNetwork.remote.ppp[0].ppp 	rcvdPkFromHL:count 	281323
attr interpolationmode  none
attr source  packetReceivedFromUpper
attr title  "packets received from higher layer, count"
scalar UniversityNetwork.remote.ppp[0].ppp 	rcvdPkFromHL:sum(packetBytes) 	23024006
attr interpolationmode  none
attr source  packetReceivedFromUpper
attr title  "packets received from higher layer, sum(packetBytes)"
scalar UniversityNetwork.remote.ppp[0].ppp 	passedUpPk:count 	294639
attr interpolationmode  none
attr source  packetSentToUpper
attr title  "packets passed to higher layer, count"
scalar UniversityNetwork.remote.ppp[0].ppp 	passedUpPk:sum(packetBytes) 	428523469
attr interpolationmode  none
attr source  packetSentToUpper
attr title  "packets passed to higher layer, sum(packetBytes)"
scalar UniversityNetwork.remote.ppp[0].ppp 	txPk:count 	281323
attr interpolationmode  none
attr source  packetSentToLower
attr title  "packets transmitted, count"
scalar UniversityNetwork.remote.ppp[0].ppp 	txPk:sum(packetBytes) 	24993267
attr interpolationmode  none
attr source  packetSentToLower
attr title  "packets transmitted, sum(packetBytes)"
scalar UniversityNetwork.remote.ppp[0].ppp 	droppedPkBitError:count 	0
attr interpolationmode  none
attr source  dropPkBitError
attr title  "packets dropped/bit error, count"
scalar UniversityNetwork.remote.ppp[0].ppp 	droppedPkBitError:sum(packetBytes) 	0
attr interpolationmode  none
attr source  dropPkBitError
attr title  "packets dropped/bit error, sum(packetBytes)"
scalar UniversityNetwork.remote.ppp[0].ppp 	droppedPkIfaceDown:count 	0
attr interpolationmode  none
attr source  dropPkIfaceDown
attr title  "packets dropped/interface down, count"
scalar UniversityNetwork.remote.ppp[0].ppp 	droppedPkIfaceDown:sum(packetBytes) 	0
attr interpolationmode  none
attr source  dropPkIfaceDown
attr title  "packets dropped/interface down, sum(packetBytes)"
scalar UniversityNetwork.remote.ppp[0].ppp 	rxPkOk:count 	294639
attr interpolationmode  none
attr source  rxPkOk
attr title  "packets received OK, count"
scalar UniversityNetwork.remote.ppp[0].ppp 	rxPkOk:sum(packetBytes) 	430585942
attr interpolationmode  none
attr source  rxPkOk
attr title  "packets received OK, sum(packetBytes)"
scalar UniversityNetwork.remote.ppp[0].ppp 	txState:timeavg 	0.055540593010414
attr interpolationmode  sample-hold
attr title  "tx state, timeavg"
scalar UniversityNetwork.remote.ppp[1].inputHook[0] 	duration 	300
scalar UniversityNetwork.remote.ppp[1].inputHook[0] 	"total packets" 	0
scalar UniversityNetwork.remote.ppp[1].inputHook[0] 	"total bits" 	0
scalar UniversityNetwork.remote.ppp[1].inputHook[0] 	"avg throughput (bit/s)" 	0
scalar UniversityNetwork.remote.ppp[1].inputHook[0] 	"avg packets/s" 	0
statistic UniversityNetwork.remote.ppp[1].queue 	queueingTime:histogram
field count 0
field mean -nan
field stddev -nan
field sum 0
field sqrsum 0
field min -nan
field max -nan
attr interpolationmode  none
attr title  "queueing time, histogram"
bin	-INF	0
bin	-0.5	0
bin	-0.46666666666667	0
bin	-0.43333333333333	0
bin	-0.4	0
bin	-0.36666666666667	0
bin	-0.33333333333333	0
bin	-0.3	0
bin	-0.26666666666667	0
bin	-0.23333333333333	0
bin	-0.2	0
bin	-0.16666666666667	0
bin	-0.13333333333333	0
bin	-0.1	0
bin	-0.066666666666667	0
bin	-0.033333333333333	0
bin	0	0
bin	0.033333333333333	0
bin	0.066666666666667	0
bin	0.1	0
bin	0.13333333333333	0
bin	0.16666666666667	0
bin	0.2	0
bin	0.23333333333333	0
bin	0.26666666666667	0
bin	0.3	0
bin	0.33333333333333	0
bin	0.36666666666667	0
bin	0.4	0
bin	0.43333333333333	0
bin	0.46666666666667	0
bin	0.5	0
scalar UniversityNetwork.remote.ppp[1].queue 	dropPk:count 	0
attr interpolationmode  none
attr source  dropPkByQueue
attr title  "dropped packets, count"
scalar UniversityNetwork.remote.ppp[1].queue 	dropPk:sum(packetBytes) 	0
attr interpolationmode  none
attr source  dropPkByQueue
attr title  "dropped packets, sum(packetBytes)"
scalar UniversityNetwork.remote.ppp[1].queue 	queueLength:max 	0
attr interpolationmode  sample-hold
attr title  "queue length, max"
scalar UniversityNetwork.remote.ppp[1].queue 	queueLength:timeavg 	0
attr interpolationmode  sample-hold
attr title  "queue length, timeavg"
scalar UniversityNetwork.remote.ppp[1].queue 	rcvdPk:count 	0
attr interpolationmode  none
attr title  "received packets, count"
scalar UniversityNetwork.remote.ppp[1].queue 	rcvdPk:sum(packetBytes) 	0
attr interpolationmode  none
attr title  "received packets, sum(packetBytes)"
scalar UniversityNetwork.remote.ppp[1].ppp 	rcvdPkFromHL:count 	0
attr interpolationmode  none
attr source  packetReceivedFromUpper
attr title  "packets received from higher layer, count"
scalar UniversityNetwork.remote.ppp[1].ppp 	rcvdPkFromHL:sum(packetBytes) 	0
attr interpolationmode  none
attr source  packetReceivedFromUpper
attr title  "packets received from higher layer, sum(packetBytes)"
scalar UniversityNetwork.remote.ppp[1].ppp 	passedUpPk:count 	0
attr interpolationmode  none
attr source  packetSentToUpper
attr title  "packets passed to higher layer, count"
scalar UniversityNetwork.remote.ppp[1].ppp 	passedUpPk:sum(packetBytes) 	0
attr interpolationmode  none
attr source  packetSentToUpper
attr title  "packets passed to higher layer, sum(packetBytes)"
scalar UniversityNetwork.remote.ppp[1].ppp 	txPk:count 	0
attr interpolationmode  none
attr source  packetSentToLower
attr title  "packets transmitted, count"
scalar UniversityNetwork.remote.ppp[1].ppp 	txPk:sum(packetBytes) 	0
attr interpolationmode  none
attr source  packetSentToLower
attr title  "packets transmitted, sum(packetBytes)"
scalar UniversityNetwork.remote.ppp[1].ppp 	droppedPkBitError:count 	0
attr interpolationmode  none
attr source  dropPkBitError
attr title  "packets dropped/bit error, count"
scalar UniversityNetwork.remote.ppp[1].ppp 	droppedPkBitError:sum(packetBytes) 	0
attr interpolationmode  none
attr source  dropPkBitError
attr title  "packets dropped/bit error, sum(packetBytes)"
scalar UniversityNetwork.remote.ppp[1].ppp 	droppedPkIfaceDown:count 	0
attr interpolationmode  none
attr source  dropPkIfaceDown
attr title  "packets dropped/interface down, count"
scalar UniversityNetwork.remote.ppp[1].ppp 	droppedPkIfaceDown:sum(packetBytes) 	0
attr interpolationmode  none
attr source  dropPkIfaceDown
attr title  "packets dropped/interface down, sum(packetBytes)"
scalar UniversityNetwork.remote.ppp[1].ppp 	rxPkOk:count 	0
attr interpolationmode  none
attr source  rxPkOk
attr title  "packets received OK, count"
scalar UniversityNetwork.remote.ppp[1].ppp 	rxPkOk:sum(packetBytes) 	0
attr interpolationmode  none
attr source  rxPkOk
attr title  "packets received OK, sum(packetBytes)"
scalar UniversityNetwork.remote.ppp[1].ppp 	txState:timeavg 	0
attr interpolationmode  sample-hold
attr title  "tx state, timeavg"
scalar UniversityNetwork.Internet.networkLayer.arp 	initiatedARPResolution:count 	0
attr title  "ARP initiated resolutions, count"
scalar UniversityNetwork.Internet.networkLayer.arp 	sentReply:count 	0
attr title  "ARP replies sent, count"
scalar UniversityNetwork.Internet.networkLayer.arp 	sentReq:count 	0
attr title  "ARP request sent, count"
scalar UniversityNetwork.Internet.networkLayer.arp 	failedARPResolution:count 	0
attr title  "ARP failed resolutions, count"
scalar UniversityNetwork.Internet.networkLayer.arp 	completedARPResolution:count 	0
attr title  "ARP completed resolutions, count"
scalar UniversityNetwork.Internet.lo0.lo 	rcvdPkFromHL:count 	0
attr interpolationmode  none
attr source  packetReceivedFromUpper
attr title  "packets received from higher layer, count"
scalar UniversityNetwork.Internet.lo0.lo 	rcvdPkFromHL:sum(packetBytes) 	0
attr interpolationmode  none
attr source  packetReceivedFromUpper
attr title  "packets received from higher layer, sum(packetBytes)"
scalar UniversityNetwork.Internet.lo0.lo 	passedUpPk:count 	0
attr interpolationmode  none
attr source  packetSentToUpper
attr title  "packets passed to higher layer, count"
scalar UniversityNetwork.Internet.lo0.lo 	passedUpPk:sum(packetBytes) 	0
attr interpolationmode  none
attr source  packetSentToUpper
attr title  "packets passed to higher layer, sum(packetBytes)"
scalar UniversityNetwork.Internet.lo0.lo 	droppedPkBitError:count 	0
attr interpolationmode  none
attr source  dropPkBitError
attr title  "packets dropped/bit error, count"
scalar UniversityNetwork.Internet.lo0.lo 	droppedPkBitError:sum(packetBytes) 	0
attr interpolationmode  none
attr source  dropPkBitError
attr title  "packets dropped/bit error, sum(packetBytes)"
scalar UniversityNetwork.Internet.ppp[0].inputHook[0] 	duration 	300
scalar UniversityNetwork.Internet.ppp[0].inputHook[0] 	"total packets" 	273806
scalar UniversityNetwork.Internet.ppp[0].inputHook[0] 	"total bits" 	98528816
scalar UniversityNetwork.Internet.ppp[0].inputHook[0] 	"avg throughput (bit/s)" 	328429.38666667
scalar UniversityNetwork.Internet.ppp[0].inputHook[0] 	"avg packets/s" 	912.68666666667
statistic UniversityNetwork.Internet.ppp[0].queue 	queueingTime:histogram
field count 290206
field mean 3.2824706801584e-05
field stddev 0.00017888991308943
field sum 9.5259268620603
field sqrsum 0.0095997103759578
field min 0
field max 0.0048224
attr interpolationmode  none
attr title  "queueing time, histogram"
bin	-INF	0
bin	-6.028e-05	0
bin	-5.2242666666667e-05	0
bin	-4.4205333333333e-05	0
bin	-3.6168e-05	0
bin	-2.8130666666667e-05	0
bin	-2.0093333333333e-05	0
bin	-1.2056e-05	0
bin	-4.0186666666667e-06	234054
bin	4.0186666666667e-06	45
bin	1.2056e-05	47
bin	2.0093333333333e-05	60
bin	2.8130666666667e-05	59
bin	3.6168e-05	48
bin	4.4205333333333e-05	52
bin	5.2242666666667e-05	38
bin	6.028e-05	55
bin	6.8317333333333e-05	39
bin	7.6354666666667e-05	53
bin	8.4392e-05	128
bin	9.2429333333333e-05	52
bin	0.00010046666666667	46
bin	0.000108504	38
bin	0.00011654133333333	52976
bin	0.00012457866666667	10
bin	0.000132616	10
bin	0.00014065333333333	17
bin	0.00014869066666667	19
bin	0.000156728	16
bin	0.00016476533333333	11
bin	0.00017280266666667	12
bin	0.00018084	2321
scalar UniversityNetwork.Internet.ppp[0].queue 	dropPk:count 	7309
attr interpolationmode  none
attr source  dropPkByQueue
attr title  "dropped packets, count"
scalar UniversityNetwork.Internet.ppp[0].queue 	dropPk:sum(packetBytes) 	10944310
attr interpolationmode  none
attr source  dropPkByQueue
attr title  "dropped packets, sum(packetBytes)"
scalar UniversityNetwork.Internet.ppp[0].queue 	queueLength:max 	40
attr interpolationmode  sample-hold
attr title  "queue length, max"
scalar UniversityNetwork.Internet.ppp[0].queue 	queueLength:timeavg 	0.031753089540201
attr interpolationmode  sample-hold
attr title  "queue length, timeavg"
scalar UniversityNetwork.Internet.ppp[0].queue 	rcvdPk:count 	297515
attr interpolationmode  none
attr title  "received packets, count"
scalar UniversityNetwork.Internet.ppp[0].queue 	rcvdPk:sum(packetBytes) 	433290751
attr interpolationmode  none
attr title  "received packets, sum(packetBytes)"
scalar UniversityNetwork.Internet.ppp[0].ppp 	rcvdPkFromHL:count 	290206
attr interpolationmode  none
attr source  packetReceivedFromUpper
attr title  "packets received from higher layer, count"
scalar UniversityNetwork.Internet.ppp[0].ppp 	rcvdPkFromHL:sum(packetBytes) 	422346441
attr interpolationmode  none
attr source  packetReceivedFromUpper
attr title  "packets received from higher layer, sum(packetBytes)"
scalar UniversityNetwork.Internet.ppp[0].ppp 	passedUpPk:count 	273806
attr interpolationmode  none
attr source  packetSentToUpper
attr title  "packets passed to higher layer, count"
scalar UniversityNetwork.Internet.ppp[0].ppp 	passedUpPk:sum(packetBytes) 	12316102
attr interpolationmode  none
attr source  packetSentToUpper
attr title  "packets passed to higher layer, sum(packetBytes)"
scalar UniversityNetwork.Internet.ppp[0].ppp 	txPk:count 	290206
attr interpolationmode  none
attr source  packetSentToLower
attr title  "packets transmitted, count"
scalar UniversityNetwork.Internet.ppp[0].ppp 	txPk:sum(packetBytes) 	424377883
attr interpolationmode  none
attr source  packetSentToLower
attr title  "packets transmitted, sum(packetBytes)"
scalar UniversityNetwork.Internet.ppp[0].ppp 	droppedPkBitError:count 	0
attr interpolationmode  none
attr source  dropPkBitError
attr title  "packets dropped/bit error, count"
scalar UniversityNetwork.Internet.ppp[0].ppp 	droppedPkBitError:sum(packetBytes) 	0
attr interpolationmode  none
attr source  dropPkBitError
attr title  "packets dropped/bit error, sum(packetBytes)"
scalar UniversityNetwork.Internet.ppp[0].ppp 	droppedPkIfaceDown:count 	0
attr interpolationmode  none
attr source  dropPkIfaceDown
attr title  "packets dropped/interface down, count"
scalar UniversityNetwork.Internet.ppp[0].ppp 	droppedPkIfaceDown:sum(packetBytes) 	0
attr interpolationmode  none
attr source  dropPkIfaceDown
attr title  "packets dropped/interface down, sum(packetBytes)"
scalar UniversityNetwork.Internet.ppp[0].ppp 	rxPkOk:count 	273806
attr interpolationmode  none
attr source  rxPkOk
attr title  "packets received OK, count"
scalar UniversityNetwork.Internet.ppp[0].ppp 	rxPkOk:sum(packetBytes) 	14232744
attr interpolationmode  none
attr source  rxPkOk
attr title  "packets received OK, sum(packetBytes)"
scalar UniversityNetwork.Internet.ppp[0].ppp 	txState:timeavg 	0.11316743546549
attr interpolationmode  sample-hold
attr title  "tx state, timeavg"
scalar UniversityNetwork.Internet.tcpApp[0] 	sentPk:count 	677
attr interpolationmode  none
attr source  sentPk
attr title  "packets sent, count"
scalar UniversityNetwork.Internet.tcpApp[0] 	sentPk:sum(packetBytes) 	399610848
attr interpolationmode  none
attr source  sentPk
attr title  "packets sent, sum(packetBytes)"
scalar UniversityNetwork.Internet.tcpApp[0] 	rcvdPk:count 	677
attr interpolationmode  none
attr source  rcvdPk
attr title  "packets received, count"
scalar UniversityNetwork.Internet.tcpApp[0] 	rcvdPk:sum(packetBytes) 	507750
attr interpolationmode  none
attr source  rcvdPk
attr title  "packets received, sum(packetBytes)"
statistic UniversityNetwork.Internet.tcpApp[0] 	endToEndDelay:histogram
field count 677
field mean 0.04001368218265
field stddev 0.17374032799374
field sum 27.089262837654
field sqrsum 21.489475415997
field min 0.022182188233
field max 3.061417230939
attr interpolationmode  none
attr source  messageAge(rcvdPk)
attr title  "end-to-end delay, histogram"
attr unit  s
bin	-INF	0
bin	0.0205807645745	0
bin	0.020794289914967	0
bin	0.021007815255433	0
bin	0.0212213405959	0
bin	0.021434865936367	0
bin	0.021648391276833	0
bin	0.0218619166173	0
bin	0.022075441957767	268
bin	0.022288967298233	0
bin	0.0225024926387	30
bin	0.022716017979167	63
bin	0.022929543319633	11
bin	0.0231430686601	121
bin	0.023356594000567	7
bin	0.023570119341033	34
bin	0.0237836446815	25
bin	0.023997170021967	21
bin	0.024210695362433	16
bin	0.0244242207029	10
bin	0.024637746043367	16
bin	0.024851271383833	1
bin	0.0250647967243	8
bin	0.025278322064767	6
bin	0.025491847405233	1
bin	0.0257053727457	2
bin	0.025918898086167	3
bin	0.026132423426633	1
bin	0.0263459487671	1
bin	0.026559474107567	3
bin	0.026772999448033	1
bin	0.0269865247885	28
scalar UniversityNetwork.Professor.networkLayer.arp 	initiatedARPResolution:count 	0
attr title  "ARP initiated resolutions, count"
scalar UniversityNetwork.Professor.networkLayer.arp 	sentReply:count 	0
attr title  "ARP replies sent, count"
scalar UniversityNetwork.Professor.networkLayer.arp 	sentReq:count 	0
attr title  "ARP request sent, count"
scalar UniversityNetwork.Professor.networkLayer.arp 	failedARPResolution:count 	0
attr title  "ARP failed resolutions, count"
scalar UniversityNetwork.Professor.networkLayer.arp 	completedARPResolution:count 	0
attr title  "ARP completed resolutions, count"
scalar UniversityNetwork.Professor.lo0.lo 	rcvdPkFromHL:count 	0
attr interpolationmode  none
attr source  packetReceivedFromUpper
attr title  "packets received from higher layer, count"
scalar UniversityNetwork.Professor.lo0.lo 	rcvdPkFromHL:sum(packetBytes) 	0
attr interpolationmode  none
attr source  packetReceivedFromUpper
attr title  "packets received from higher layer, sum(packetBytes)"
scalar UniversityNetwork.Professor.lo0.lo 	passedUpPk:count 	0
attr interpolationmode  none
attr source  packetSentToUpper
attr title  "packets passed to higher layer, count"
scalar UniversityNetwork.Professor.lo0.lo 	passedUpPk:sum(packetBytes) 	0
attr interpolationmode  none
attr source  packetSentToUpper
attr title  "packets passed to higher layer, sum(packetBytes)"
scalar UniversityNetwork.Professor.lo0.lo 	droppedPkBitError:count 	0
attr interpolationmode  none
attr source  dropPkBitError
attr title  "packets dropped/bit error, count"
scalar UniversityNetwork.Professor.lo0.lo 	droppedPkBitError:sum(packetBytes) 	0
attr interpolationmode  none
attr source  dropPkBitError
attr title  "packets dropped/bit error, sum(packetBytes)"
scalar UniversityNetwork.Professor.ppp[0].inputHook[0] 	duration 	300
scalar UniversityNetwork.Professor.ppp[0].inputHook[0] 	"total packets" 	7498
scalar UniversityNetwork.Professor.ppp[0].inputHook[0] 	"total bits" 	85657152
scalar UniversityNetwork.Professor.ppp[0].inputHook[0] 	"avg throughput (bit/s)" 	285523.84
scalar UniversityNetwork.Professor.ppp[0].inputHook[0] 	"avg packets/s" 	24.993333333333
statistic UniversityNetwork.Professor.ppp[0].queue 	queueingTime:histogram
field count 7499
field mean 0
field stddev 0
field sum 0
field sqrsum 0
field min 0
field max 0
attr interpolationmode  none
attr title  "queueing time, histogram"
bin	-INF	0
bin	-0.5	0
bin	-0.46666666666667	0
bin	-0.43333333333333	0
bin	-0.4	0
bin	-0.36666666666667	0
bin	-0.33333333333333	0
bin	-0.3	0
bin	-0.26666666666667	0
bin	-0.23333333333333	0
bin	-0.2	0
bin	-0.16666666666667	0
bin	-0.13333333333333	0
bin	-0.1	0
bin	-0.066666666666667	0
bin	-0.033333333333333	0
bin	0	7499
bin	0.033333333333333	0
bin	0.066666666666667	0
bin	0.1	0
bin	0.13333333333333	0
bin	0.16666666666667	0
bin	0.2	0
bin	0.23333333333333	0
bin	0.26666666666667	0
bin	0.3	0
bin	0.33333333333333	0
bin	0.36666666666667	0
bin	0.4	0
bin	0.43333333333333	0
bin	0.46666666666667	0
bin	0.5	0
scalar UniversityNetwork.Professor.ppp[0].queue 	dropPk:count 	0
attr interpolationmode  none
attr source  dropPkByQueue
attr title  "dropped packets, count"
scalar UniversityNetwork.Professor.ppp[0].queue 	dropPk:sum(packetBytes) 	0
attr interpolationmode  none
attr source  dropPkByQueue
attr title  "dropped packets, sum(packetBytes)"
scalar UniversityNetwork.Professor.ppp[0].queue 	queueLength:max 	0
attr interpolationmode  sample-hold
attr title  "queue length, max"
scalar UniversityNetwork.Professor.ppp[0].queue 	queueLength:timeavg 	0
attr interpolationmode  sample-hold
attr title  "queue length, timeavg"
scalar UniversityNetwork.Professor.ppp[0].queue 	rcvdPk:count 	7499
attr interpolationmode  none
attr title  "received packets, count"
scalar UniversityNetwork.Professor.ppp[0].queue 	rcvdPk:sum(packetBytes) 	10708572
attr interpolationmode  none
attr title  "received packets, sum(packetBytes)"
scalar UniversityNetwork.Professor.ppp[0].ppp 	rcvdPkFromHL:count 	7499
attr interpolationmode  none
attr source  packetReceivedFromUpper
attr title  "packets received from higher layer, count"
scalar UniversityNetwork.Professor.ppp[0].ppp 	rcvdPkFromHL:sum(packetBytes) 	10708572
attr interpolationmode  none
attr source  packetReceivedFromUpper
attr title  "packets received from higher layer, sum(packetBytes)"
scalar UniversityNetwork.Professor.ppp[0].ppp 	passedUpPk:count 	7498
attr interpolationmode  none
attr source  packetSentToUpper
attr title  "packets passed to higher layer, count"
scalar UniversityNetwork.Professor.ppp[0].ppp 	passedUpPk:sum(packetBytes) 	10707144
attr interpolationmode  none
attr source  packetSentToUpper
attr title  "packets passed to higher layer, sum(packetBytes)"
scalar UniversityNetwork.Professor.ppp[0].ppp 	txPk:count 	7499
attr interpolationmode  none
attr source  packetSentToLower
attr title  "packets transmitted, count"
scalar UniversityNetwork.Professor.ppp[0].ppp 	txPk:sum(packetBytes) 	10761065
attr interpolationmode  none
attr source  packetSentToLower
attr title  "packets transmitted, sum(packetBytes)"
scalar UniversityNetwork.Professor.ppp[0].ppp 	droppedPkBitError:count 	0
attr interpolationmode  none
attr source  dropPkBitError
attr title  "packets dropped/bit error, count"
scalar UniversityNetwork.Professor.ppp[0].ppp 	droppedPkBitError:sum(packetBytes) 	0
attr interpolationmode  none
attr source  dropPkBitError
attr title  "packets dropped/bit error, sum(packetBytes)"
scalar UniversityNetwork.Professor.ppp[0].ppp 	droppedPkIfaceDown:count 	0
attr interpolationmode  none
attr source  dropPkIfaceDown
attr title  "packets dropped/interface down, count"
scalar UniversityNetwork.Professor.ppp[0].ppp 	droppedPkIfaceDown:sum(packetBytes) 	0
attr interpolationmode  none
attr source  dropPkIfaceDown
attr title  "packets dropped/interface down, sum(packetBytes)"
scalar UniversityNetwork.Professor.ppp[0].ppp 	rxPkOk:count 	7498
attr interpolationmode  none
attr source  rxPkOk
attr title  "packets received OK, count"
scalar UniversityNetwork.Professor.ppp[0].ppp 	rxPkOk:sum(packetBytes) 	10759630
attr interpolationmode  none
attr source  rxPkOk
attr title  "packets received OK, sum(packetBytes)"
scalar UniversityNetwork.Professor.ppp[0].ppp 	txState:timeavg 	0.0028696173333332
attr interpolationmode  sample-hold
attr title  "tx state, timeavg"
scalar UniversityNetwork.Professor.udpApp[0] 	#droppedBecauseLate 	110
scalar UniversityNetwork.Professor.udpApp[0] 	avgDuration 	0.033169963420873
scalar UniversityNetwork.Professor.udpApp[0] 	"error rate" 	0.014670578821019
scalar UniversityNetwork.Professor.udpApp[0] 	"packets sent" 	7500
scalar UniversityNetwork.Professor.udpApp[0] 	"packets received" 	7498
scalar UniversityNetwork.Professor.udpApp[0] 	sentPk:count 	7500
attr interpolationmode  none
attr source  sentPk
attr title  "packets sent, count"
scalar UniversityNetwork.Professor.udpApp[0] 	sentPk:sum(packetBytes) 	10500000
attr interpolationmode  none
attr source  sentPk
attr title  "packets sent, sum(packetBytes)"
scalar UniversityNetwork.Professor.udpApp[0] 	rcvdPk:count 	7498
attr interpolationmode  none
attr source  rcvdPk
attr title  "packets received, count"
scalar UniversityNetwork.Professor.udpApp[0] 	rcvdPk:sum(packetBytes) 	10497200
attr interpolationmode  none
attr source  rcvdPk
attr title  "packets received, sum(packetBytes)"
statistic UniversityNetwork.Professor.udpApp[0] 	rcvdPkLifetime:stats
field count 7498
field mean 0.033169963420833
field stddev 0.14313574733303
field sum 248.7083857294
field sqrsum 161.84700076499
field min 0.016460396666
field max 2.09252992198
attr interpolationmode  none
attr source  messageAge(rcvdPk)
attr title  "received packet lifetime, stats"
attr unit  s
scalar UniversityNetwork.Professor.udp 	droppedPkBadChecksum:count 	0
attr interpolationmode  none
attr title  "packets dropped (checksum error), count"
scalar UniversityNetwork.Professor.udp 	droppedPkWrongPort:count 	0
attr interpolationmode  none
attr title  "packets dropped (wrong port), count"
scalar UniversityNetwork.Professor.udp 	passedUpPk:count 	7498
attr interpolationmode  none
attr title  "packets passed up, count"
scalar UniversityNetwork.Professor.udp 	sentPk:count 	7499
attr interpolationmode  none
attr source  sentPk
attr title  "packets sent, count"
scalar UniversityNetwork.Professor.udp 	sentPk:sum(packetBytes) 	10558592
attr interpolationmode  none
attr source  sentPk
attr title  "packets sent, sum(packetBytes)"
scalar UniversityNetwork.Professor.udp 	rcvdPk:count 	7498
attr interpolationmode  none
attr source  rcvdPk
attr title  "packets received, count"
scalar UniversityNetwork.Professor.udp 	rcvdPk:sum(packetBytes) 	10557184
attr interpolationmode  none
attr source  rcvdPk
attr title  "packets received, sum(packetBytes)"
scalar UniversityNetwork.accessPoint.relayUnit 	"number of received BPDUs from STP module" 	0
scalar UniversityNetwork.accessPoint.relayUnit 	"number of received frames from network (including BPDUs)" 	577667
scalar UniversityNetwork.accessPoint.relayUnit 	"number of dropped frames (including BPDUs)" 	0
scalar UniversityNetwork.accessPoint.relayUnit 	"number of delivered BPDUs to the STP module" 	0
scalar UniversityNetwork.accessPoint.relayUnit 	"number of dispatched BPDU frames to the network" 	0
scalar UniversityNetwork.accessPoint.relayUnit 	"number of dispatched non-BDPU frames to the network" 	577667
scalar UniversityNetwork.accessPoint.wlan[0].mgmt 	dropPkByQueue:count 	16277
attr interpolationmode  none
attr source  dropPkByQueue
attr title  "packets dropped by queue, count"
scalar UniversityNetwork.accessPoint.wlan[0].mgmt 	dropPkByQueue:sum(packetBytes) 	18790139
attr interpolationmode  none
attr source  dropPkByQueue
attr title  "packets dropped by queue, sum(packetBytes)"
scalar UniversityNetwork.accessPoint.wlan[0].mgmt 	dataQueueLen:max 	50
attr interpolationmode  sample-hold
attr title  "data queue length, max"
scalar UniversityNetwork.accessPoint.wlan[0].mgmt 	dataQueueLen:timeavg 	44.991120886185
attr interpolationmode  sample-hold
attr title  "data queue length, timeavg"
scalar UniversityNetwork.accessPoint.wlan[0].mac 	"number of received packets" 	282472
scalar UniversityNetwork.accessPoint.wlan[0].mac 	"number of collisions" 	1402
scalar UniversityNetwork.accessPoint.wlan[0].mac 	"number of internal collisions" 	0
scalar UniversityNetwork.accessPoint.wlan[0].mac 	"number of retry for AC 0" 	17546
scalar UniversityNetwork.accessPoint.wlan[0].mac 	"sent and received bits" 	3379156944
scalar UniversityNetwork.accessPoint.wlan[0].mac 	"sent packet within AC 0" 	279727
scalar UniversityNetwork.accessPoint.wlan[0].mac 	"sent in TXOP " 	0
scalar UniversityNetwork.accessPoint.wlan[0].mac 	"sentWithoutRetry AC 0" 	262690
scalar UniversityNetwork.accessPoint.wlan[0].mac 	"numGivenUp AC 0" 	0
scalar UniversityNetwork.accessPoint.wlan[0].mac 	"numDropped AC 0" 	0
scalar UniversityNetwork.accessPoint.wlan[0].mac 	rcvdPkFromHL:count 	283327
attr interpolationmode  none
attr source  packetReceivedFromUpper
attr title  "packets received from higher layer, count"
scalar UniversityNetwork.accessPoint.wlan[0].mac 	rcvdPkFromHL:sum(packetBytes) 	422397702
attr interpolationmode  none
attr source  packetReceivedFromUpper
attr title  "packets received from higher layer, sum(packetBytes)"
scalar UniversityNetwork.accessPoint.wlan[0].mac 	passedUpPk:count 	282574
attr interpolationmode  none
attr source  packetSentToUpper
attr title  "packets passed to higher layer, count"
scalar UniversityNetwork.accessPoint.wlan[0].mac 	passedUpPk:sum(packetBytes) 	34914086
attr interpolationmode  none
attr source  packetSentToUpper
attr title  "packets passed to higher layer, sum(packetBytes)"
scalar UniversityNetwork.accessPoint.wlan[0].mac 	rcvdPkFromLL:count 	563718
attr interpolationmode  none
attr source  packetReceivedFromLower
attr title  "packets received from lower layer, count"
scalar UniversityNetwork.accessPoint.wlan[0].mac 	rcvdPkFromLL:sum(packetBytes) 	38955772
attr interpolationmode  none
attr source  packetReceivedFromLower
attr title  "packets received from lower layer, sum(packetBytes)"
scalar UniversityNetwork.accessPoint.wlan[0].mac 	sentDownPk:count 	583344
attr interpolationmode  none
attr source  packetSentToLower
attr title  "packets sent to lower layer, count"
scalar UniversityNetwork.accessPoint.wlan[0].mac 	sentDownPk:sum(packetBytes) 	452897979
attr interpolationmode  none
attr source  packetSentToLower
attr title  "packets sent to lower layer, sum(packetBytes)"
scalar UniversityNetwork.accessPoint.wlan[0].radio 	lossRate:min 	0
attr interpolationmode  backward-sample-hold
attr title  "packet loss rate, min"
scalar UniversityNetwork.accessPoint.wlan[0].radio 	lossRate:max 	0.38
attr interpolationmode  backward-sample-hold
attr title  "packet loss rate, max"
scalar UniversityNetwork.accessPoint.wlan[0].radio 	lossRate:timeavg 	0.0025203184211792
attr interpolationmode  backward-sample-hold
attr title  "packet loss rate, timeavg"
statistic UniversityNetwork.accessPoint.wlan[0].radio 	channelNo:histogram
field count 1
field mean 0
field stddev -nan
field sum 0
field sqrsum 0
field min 0
field max 0
attr interpolationmode  sample-hold
attr title  "channel no, histogram"
bin	-INF	0
bin	-0.5	0
bin	-0.46666666666667	0
bin	-0.43333333333333	0
bin	-0.4	0
bin	-0.36666666666667	0
bin	-0.33333333333333	0
bin	-0.3	0
bin	-0.26666666666667	0
bin	-0.23333333333333	0
bin	-0.2	0
bin	-0.16666666666667	0
bin	-0.13333333333333	0
bin	-0.1	0
bin	-0.066666666666667	0
bin	-0.033333333333333	0
bin	0	1
bin	0.033333333333333	0
bin	0.066666666666667	0
bin	0.1	0
bin	0.13333333333333	0
bin	0.16666666666667	0
bin	0.2	0
bin	0.23333333333333	0
bin	0.26666666666667	0
bin	0.3	0
bin	0.33333333333333	0
bin	0.36666666666667	0
bin	0.4	0
bin	0.43333333333333	0
bin	0.46666666666667	0
bin	0.5	0
scalar UniversityNetwork.accessPoint.wlan[0].radio 	radioState:count 	2304047
attr interpolationmode  sample-hold
attr title  "radio state (enum), count"
scalar UniversityNetwork.accessPoint.wlan[0].radio 	bitrate:min 	54000000
attr interpolationmode  sample-hold
attr title  "tx bitrate, min"
attr unit  bps
scalar UniversityNetwork.accessPoint.wlan[0].radio 	bitrate:max 	54000000
attr interpolationmode  sample-hold
attr title  "tx bitrate, max"
attr unit  bps
scalar UniversityNetwork.accessPoint.wlan[0].radio 	bitrate:timeavg 	54000000
attr interpolationmode  sample-hold
attr title  "tx bitrate, timeavg"
attr unit  bps
scalar UniversityNetwork.accessPoint.eth[0].mac 	"simulated time" 	300
scalar UniversityNetwork.accessPoint.eth[0].mac 	full-duplex 	1
scalar UniversityNetwork.accessPoint.eth[0].mac 	"frames/sec sent" 	940.55333333333
scalar UniversityNetwork.accessPoint.eth[0].mac 	"frames/sec rcvd" 	985.00333333333
scalar UniversityNetwork.accessPoint.eth[0].mac 	"bits/sec sent" 	789571.14666667
scalar UniversityNetwork.accessPoint.eth[0].mac 	"bits/sec rcvd" 	11570808.053333
scalar UniversityNetwork.accessPoint.eth[0].mac 	"rx channel idle (%)" 	88.366151733391
scalar UniversityNetwork.accessPoint.eth[0].mac 	"rx channel utilization (%)" 	11.633848266609
scalar UniversityNetwork.accessPoint.eth[0].mac 	rxPkFromHL:count 	282166
attr interpolationmode  none
attr source  rxPkFromHL
attr title  "packet bytes from higher layer, count"
scalar UniversityNetwork.accessPoint.eth[0].mac 	rxPkFromHL:sum(packetBytes) 	29608918
attr interpolationmode  none
attr source  rxPkFromHL
attr title  "packet bytes from higher layer, sum(packetBytes)"
scalar UniversityNetwork.accessPoint.eth[0].mac 	rxPausePkUnits:count 	0
attr interpolationmode  none
attr title  "pause units received, count"
scalar UniversityNetwork.accessPoint.eth[0].mac 	rxPausePkUnits:sum 	0
attr interpolationmode  none
attr title  "pause units received, sum"
scalar UniversityNetwork.accessPoint.eth[0].mac 	txPausePkUnits:count 	0
attr interpolationmode  none
attr title  "pause units sent, count"
scalar UniversityNetwork.accessPoint.eth[0].mac 	txPausePkUnits:sum 	0
attr interpolationmode  none
attr title  "pause units sent, sum"
scalar UniversityNetwork.accessPoint.eth[0].mac 	txPk:count 	282166
attr interpolationmode  none
attr source  txPk
attr title  "packets transmitted, count"
scalar UniversityNetwork.accessPoint.eth[0].mac 	txPk:sum(packetBytes) 	29608918
attr interpolationmode  none
attr source  txPk
attr title  "packets transmitted, sum(packetBytes)"
scalar UniversityNetwork.accessPoint.eth[0].mac 	droppedPkNotForUs:count 	0
attr interpolationmode  none
attr source  dropPkNotForUs
attr title  "packets dropped/not for us, count"
scalar UniversityNetwork.accessPoint.eth[0].mac 	droppedPkNotForUs:sum(packetBytes) 	0
attr interpolationmode  none
attr source  dropPkNotForUs
attr title  "packets dropped/not for us, sum(packetBytes)"
scalar UniversityNetwork.accessPoint.eth[0].mac 	passedUpPk:count 	295501
attr interpolationmode  none
attr source  packetSentToUpper
attr title  "packets passed to higher layer, count"
scalar UniversityNetwork.accessPoint.eth[0].mac 	passedUpPk:sum(packetBytes) 	433905302
attr interpolationmode  none
attr source  packetSentToUpper
attr title  "packets passed to higher layer, sum(packetBytes)"
scalar UniversityNetwork.accessPoint.eth[0].mac 	droppedPkBitError:count 	0
attr interpolationmode  none
attr source  dropPkBitError
attr title  "packets dropped/bit error, count"
scalar UniversityNetwork.accessPoint.eth[0].mac 	droppedPkBitError:sum(packetBytes) 	0
attr interpolationmode  none
attr source  dropPkBitError
attr title  "packets dropped/bit error, sum(packetBytes)"
scalar UniversityNetwork.accessPoint.eth[0].mac 	droppedPkIfaceDown:count 	0
attr interpolationmode  none
attr source  dropPkIfaceDown
attr title  "packets dropped/interface down, count"
scalar UniversityNetwork.accessPoint.eth[0].mac 	droppedPkIfaceDown:sum(packetBytes) 	0
attr interpolationmode  none
attr source  dropPkIfaceDown
attr title  "packets dropped/interface down, sum(packetBytes)"
scalar UniversityNetwork.accessPoint.eth[0].mac 	rxPkOk:count 	295501
attr interpolationmode  none
attr source  rxPkOk
attr title  "packets received OK, count"
scalar UniversityNetwork.accessPoint.eth[0].mac 	rxPkOk:sum(packetBytes) 	433905302
attr interpolationmode  none
attr source  rxPkOk
attr title  "packets received OK, sum(packetBytes)"
scalar UniversityNetwork.FTPUploader.networkLayer.arp 	initiatedARPResolution:count 	4
attr title  "ARP initiated resolutions, count"
scalar UniversityNetwork.FTPUploader.networkLayer.arp 	sentReply:count 	1
attr title  "ARP replies sent, count"
scalar UniversityNetwork.FTPUploader.networkLayer.arp 	sentReq:count 	6
attr title  "ARP request sent, count"
scalar UniversityNetwork.FTPUploader.networkLayer.arp 	failedARPResolution:count 	1
attr title  "ARP failed resolutions, count"
scalar UniversityNetwork.FTPUploader.networkLayer.arp 	completedARPResolution:count 	78
attr title  "ARP completed resolutions, count"
scalar UniversityNetwork.FTPUploader.lo0.lo 	rcvdPkFromHL:count 	0
attr interpolationmode  none
attr source  packetReceivedFromUpper
attr title  "packets received from higher layer, count"
scalar UniversityNetwork.FTPUploader.lo0.lo 	rcvdPkFromHL:sum(packetBytes) 	0
attr interpolationmode  none
attr source  packetReceivedFromUpper
attr title  "packets received from higher layer, sum(packetBytes)"
scalar UniversityNetwork.FTPUploader.lo0.lo 	passedUpPk:count 	0
attr interpolationmode  none
attr source  packetSentToUpper
attr title  "packets passed to higher layer, count"
scalar UniversityNetwork.FTPUploader.lo0.lo 	passedUpPk:sum(packetBytes) 	0
attr interpolationmode  none
attr source  packetSentToUpper
attr title  "packets passed to higher layer, sum(packetBytes)"
scalar UniversityNetwork.FTPUploader.lo0.lo 	droppedPkBitError:count 	0
attr interpolationmode  none
attr source  dropPkBitError
attr title  "packets dropped/bit error, count"
scalar UniversityNetwork.FTPUploader.lo0.lo 	droppedPkBitError:sum(packetBytes) 	0
attr interpolationmode  none
attr source  dropPkBitError
attr title  "packets dropped/bit error, sum(packetBytes)"
scalar UniversityNetwork.FTPUploader.wlan[0].agent 	dropConfirm:count 	0
attr title  "dropped confirms, count"
scalar UniversityNetwork.FTPUploader.wlan[0].agent 	acceptConfirm:count 	3
attr title  "accepted confirms, count"
scalar UniversityNetwork.FTPUploader.wlan[0].agent 	sentRequest:count 	3
attr title  "sent requests, count"
scalar UniversityNetwork.FTPUploader.wlan[0].mgmt 	dropPkByQueue:count 	53
attr interpolationmode  none
attr source  dropPkByQueue
attr title  "packets dropped by queue, count"
scalar UniversityNetwork.FTPUploader.wlan[0].mgmt 	dropPkByQueue:sum(packetBytes) 	81726
attr interpolationmode  none
attr source  dropPkByQueue
attr title  "packets dropped by queue, sum(packetBytes)"
scalar UniversityNetwork.FTPUploader.wlan[0].mgmt 	dataQueueLen:max 	50
attr interpolationmode  sample-hold
attr title  "data queue length, max"
scalar UniversityNetwork.FTPUploader.wlan[0].mgmt 	dataQueueLen:timeavg 	0.066463817448707
attr interpolationmode  sample-hold
attr title  "data queue length, timeavg"
scalar UniversityNetwork.FTPUploader.wlan[0].mac 	"number of received packets" 	351
scalar UniversityNetwork.FTPUploader.wlan[0].mac 	"number of collisions" 	19412
scalar UniversityNetwork.FTPUploader.wlan[0].mac 	"number of internal collisions" 	0
scalar UniversityNetwork.FTPUploader.wlan[0].mac 	"number of retry for AC 0" 	171
scalar UniversityNetwork.FTPUploader.wlan[0].mac 	"sent and received bits" 	7081536
scalar UniversityNetwork.FTPUploader.wlan[0].mac 	"sent packet within AC 0" 	586
scalar UniversityNetwork.FTPUploader.wlan[0].mac 	"sent in TXOP " 	0
scalar UniversityNetwork.FTPUploader.wlan[0].mac 	"sentWithoutRetry AC 0" 	457
scalar UniversityNetwork.FTPUploader.wlan[0].mac 	"numGivenUp AC 0" 	0
scalar UniversityNetwork.FTPUploader.wlan[0].mac 	"numDropped AC 0" 	0
scalar UniversityNetwork.FTPUploader.wlan[0].mac 	rcvdPkFromHL:count 	587
attr interpolationmode  none
attr source  packetReceivedFromUpper
attr title  "packets received from higher layer, count"
scalar UniversityNetwork.FTPUploader.wlan[0].mac 	rcvdPkFromHL:sum(packetBytes) 	885192
attr interpolationmode  none
attr source  packetReceivedFromUpper
attr title  "packets received from higher layer, sum(packetBytes)"
scalar UniversityNetwork.FTPUploader.wlan[0].mac 	passedUpPk:count 	4000
attr interpolationmode  none
attr source  packetSentToUpper
attr title  "packets passed to higher layer, count"
scalar UniversityNetwork.FTPUploader.wlan[0].mac 	passedUpPk:sum(packetBytes) 	304714
attr interpolationmode  none
attr source  packetSentToUpper
attr title  "packets passed to higher layer, sum(packetBytes)"
scalar UniversityNetwork.FTPUploader.wlan[0].mac 	rcvdPkFromLL:count 	1145948
attr interpolationmode  none
attr source  packetReceivedFromLower
attr title  "packets received from lower layer, count"
scalar UniversityNetwork.FTPUploader.wlan[0].mac 	rcvdPkFromLL:sum(packetBytes) 	476980580
attr interpolationmode  none
attr source  packetReceivedFromLower
attr title  "packets received from lower layer, sum(packetBytes)"
scalar UniversityNetwork.FTPUploader.wlan[0].mac 	sentDownPk:count 	1109
attr interpolationmode  none
attr source  packetSentToLower
attr title  "packets sent to lower layer, count"
[...]
attr source  rcvdPk
attr title  "packets received, sum(packetBytes)"
statistic UniversityNetwork.Students[97].tcpApp[0] 	endToEndDelay:histogram
field count 3
field mean 35.336821132066
field stddev 30.345450127287
field sum 106.0104633962
field sqrsum 5587.7654700142
field min 12.771020268717
field max 69.834691237949
attr interpolationmode  none
attr source  messageAge(rcvdPk)
attr title  "end-to-end delay, histogram"
attr unit  s
bin	-INF	0
bin	-15.760815215899	0
bin	-11.956570484617	0
bin	-8.1523257533347	0
bin	-4.3480810220526	0
bin	-0.54383629077047	0
bin	3.2604084405117	0
bin	7.0646531717938	0
bin	10.868897903076	1
bin	14.673142634358	0
bin	18.47738736564	0
bin	22.281632096922	1
bin	26.085876828204	0
bin	29.890121559487	0
bin	33.694366290769	0
bin	37.498611022051	0
bin	41.302855753333	0
bin	45.107100484615	0
bin	48.911345215897	0
bin	52.715589947179	0
bin	56.519834678462	0
bin	60.324079409744	0
bin	64.128324141026	0
bin	67.932568872308	1
bin	71.73681360359	0
bin	75.541058334872	0
bin	79.345303066154	0
bin	83.149547797436	0
bin	86.953792528719	0
bin	90.758037260001	0
bin	94.562281991283	0
bin	98.366526722565	0
scalar UniversityNetwork.Students[98].networkLayer.arp 	initiatedARPResolution:count 	3
attr title  "ARP initiated resolutions, count"
scalar UniversityNetwork.Students[98].networkLayer.arp 	sentReply:count 	2
attr title  "ARP replies sent, count"
scalar UniversityNetwork.Students[98].networkLayer.arp 	sentReq:count 	5
attr title  "ARP request sent, count"
scalar UniversityNetwork.Students[98].networkLayer.arp 	failedARPResolution:count 	0
attr title  "ARP failed resolutions, count"
scalar UniversityNetwork.Students[98].networkLayer.arp 	completedARPResolution:count 	92
attr title  "ARP completed resolutions, count"
scalar UniversityNetwork.Students[98].lo0.lo 	rcvdPkFromHL:count 	0
attr interpolationmode  none
attr source  packetReceivedFromUpper
attr title  "packets received from higher layer, count"
scalar UniversityNetwork.Students[98].lo0.lo 	rcvdPkFromHL:sum(packetBytes) 	0
attr interpolationmode  none
attr source  packetReceivedFromUpper
attr title  "packets received from higher layer, sum(packetBytes)"
scalar UniversityNetwork.Students[98].lo0.lo 	passedUpPk:count 	0
attr interpolationmode  none
attr source  packetSentToUpper
attr title  "packets passed to higher layer, count"
scalar UniversityNetwork.Students[98].lo0.lo 	passedUpPk:sum(packetBytes) 	0
attr interpolationmode  none
attr source  packetSentToUpper
attr title  "packets passed to higher layer, sum(packetBytes)"
scalar UniversityNetwork.Students[98].lo0.lo 	droppedPkBitError:count 	0
attr interpolationmode  none
attr source  dropPkBitError
attr title  "packets dropped/bit error, count"
scalar UniversityNetwork.Students[98].lo0.lo 	droppedPkBitError:sum(packetBytes) 	0
attr interpolationmode  none
attr source  dropPkBitError
attr title  "packets dropped/bit error, sum(packetBytes)"
scalar UniversityNetwork.Students[98].wlan[0].agent 	dropConfirm:count 	0
attr title  "dropped confirms, count"
scalar UniversityNetwork.Students[98].wlan[0].agent 	acceptConfirm:count 	3
attr title  "accepted confirms, count"
scalar UniversityNetwork.Students[98].wlan[0].agent 	sentRequest:count 	3
attr title  "sent requests, count"
scalar UniversityNetwork.Students[98].wlan[0].mgmt 	dropPkByQueue:count 	0
attr interpolationmode  none
attr source  dropPkByQueue
attr title  "packets dropped by queue, count"
scalar UniversityNetwork.Students[98].wlan[0].mgmt 	dropPkByQueue:sum(packetBytes) 	0
attr interpolationmode  none
attr source  dropPkByQueue
attr title  "packets dropped by queue, sum(packetBytes)"
scalar UniversityNetwork.Students[98].wlan[0].mgmt 	dataQueueLen:max 	3
attr interpolationmode  sample-hold
attr title  "data queue length, max"
scalar UniversityNetwork.Students[98].wlan[0].mgmt 	dataQueueLen:timeavg 	0.00015374855499667
attr interpolationmode  sample-hold
attr title  "data queue length, timeavg"
scalar UniversityNetwork.Students[98].wlan[0].mac 	"number of received packets" 	2970
scalar UniversityNetwork.Students[98].wlan[0].mac 	"number of collisions" 	19281
scalar UniversityNetwork.Students[98].wlan[0].mac 	"number of internal collisions" 	0
scalar UniversityNetwork.Students[98].wlan[0].mac 	"number of retry for AC 0" 	191
scalar UniversityNetwork.Students[98].wlan[0].mac 	"sent and received bits" 	1992848
scalar UniversityNetwork.Students[98].wlan[0].mac 	"sent packet within AC 0" 	2984
scalar UniversityNetwork.Students[98].wlan[0].mac 	"sent in TXOP " 	0
scalar UniversityNetwork.Students[98].wlan[0].mac 	"sentWithoutRetry AC 0" 	2806
scalar UniversityNetwork.Students[98].wlan[0].mac 	"numGivenUp AC 0" 	0
scalar UniversityNetwork.Students[98].wlan[0].mac 	"numDropped AC 0" 	0
scalar UniversityNetwork.Students[98].wlan[0].mac 	rcvdPkFromHL:count 	2985
attr interpolationmode  none
attr source  packetReceivedFromUpper
attr title  "packets received from higher layer, count"
scalar UniversityNetwork.Students[98].wlan[0].mac 	rcvdPkFromHL:sum(packetBytes) 	249106
attr interpolationmode  none
attr source  packetReceivedFromUpper
attr title  "packets received from higher layer, sum(packetBytes)"
scalar UniversityNetwork.Students[98].wlan[0].mac 	passedUpPk:count 	6608
attr interpolationmode  none
attr source  packetSentToUpper
attr title  "packets passed to higher layer, count"
scalar UniversityNetwork.Students[98].wlan[0].mac 	passedUpPk:sum(packetBytes) 	4768695
attr interpolationmode  none
attr source  packetSentToUpper
attr title  "packets passed to higher layer, sum(packetBytes)"
scalar UniversityNetwork.Students[98].wlan[0].mac 	rcvdPkFromLL:count 	1140916
attr interpolationmode  none
attr source  packetReceivedFromLower
attr title  "packets received from lower layer, count"
scalar UniversityNetwork.Students[98].wlan[0].mac 	rcvdPkFromLL:sum(packetBytes) 	477577003
attr interpolationmode  none
attr source  packetReceivedFromLower
attr title  "packets received from lower layer, sum(packetBytes)"
scalar UniversityNetwork.Students[98].wlan[0].mac 	sentDownPk:count 	6146
attr interpolationmode  none
attr source  packetSentToLower
attr title  "packets sent to lower layer, count"
scalar UniversityNetwork.Students[98].wlan[0].mac 	sentDownPk:sum(packetBytes) 	306246
attr interpolationmode  none
attr source  packetSentToLower
attr title  "packets sent to lower layer, sum(packetBytes)"
scalar UniversityNetwork.Students[98].wlan[0].radio 	lossRate:min 	0
attr interpolationmode  backward-sample-hold
attr title  "packet loss rate, min"
scalar UniversityNetwork.Students[98].wlan[0].radio 	lossRate:max 	0.28
attr interpolationmode  backward-sample-hold
attr title  "packet loss rate, max"
scalar UniversityNetwork.Students[98].wlan[0].radio 	lossRate:timeavg 	0.016912073848611
attr interpolationmode  backward-sample-hold
attr title  "packet loss rate, timeavg"
statistic UniversityNetwork.Students[98].wlan[0].radio 	channelNo:histogram
field count 1
field mean 0
field stddev -nan
field sum 0
field sqrsum 0
field min 0
field max 0
attr interpolationmode  sample-hold
attr title  "channel no, histogram"
bin	-INF	0
bin	-0.5	0
bin	-0.46666666666667	0
bin	-0.43333333333333	0
bin	-0.4	0
bin	-0.36666666666667	0
bin	-0.33333333333333	0
bin	-0.3	0
bin	-0.26666666666667	0
bin	-0.23333333333333	0
bin	-0.2	0
bin	-0.16666666666667	0
bin	-0.13333333333333	0
bin	-0.1	0
bin	-0.066666666666667	0
bin	-0.033333333333333	0
bin	0	1
bin	0.033333333333333	0
bin	0.066666666666667	0
bin	0.1	0
bin	0.13333333333333	0
bin	0.16666666666667	0
bin	0.2	0
bin	0.23333333333333	0
bin	0.26666666666667	0
bin	0.3	0
bin	0.33333333333333	0
bin	0.36666666666667	0
bin	0.4	0
bin	0.43333333333333	0
bin	0.46666666666667	0
bin	0.5	0
scalar UniversityNetwork.Students[98].wlan[0].radio 	radioState:count 	2294363
attr interpolationmode  sample-hold
attr title  "radio state (enum), count"
scalar UniversityNetwork.Students[98].wlan[0].radio 	bitrate:min 	54000000
attr interpolationmode  sample-hold
attr title  "tx bitrate, min"
attr unit  bps
scalar UniversityNetwork.Students[98].wlan[0].radio 	bitrate:max 	54000000
attr interpolationmode  sample-hold
attr title  "tx bitrate, max"
attr unit  bps
scalar UniversityNetwork.Students[98].wlan[0].radio 	bitrate:timeavg 	54000000
attr interpolationmode  sample-hold
attr title  "tx bitrate, timeavg"
attr unit  bps
scalar UniversityNetwork.Students[98].tcpApp[0] 	numActiveSessions:max 	1
attr interpolationmode  sample-hold
attr source  sum(connect)
attr title  "number of active sessions, max"
scalar UniversityNetwork.Students[98].tcpApp[0] 	numActiveSessions:timeavg 	0.54273571718723
attr interpolationmode  sample-hold
attr source  sum(connect)
attr title  "number of active sessions, timeavg"
scalar UniversityNetwork.Students[98].tcpApp[0] 	numSessions:last 	6
attr source  sum(connect+1)/2
attr title  "total number of sessions, last"
scalar UniversityNetwork.Students[98].tcpApp[0] 	sentPk:count 	6
attr interpolationmode  none
attr source  sentPk
attr title  "packets sent, count"
scalar UniversityNetwork.Students[98].tcpApp[0] 	sentPk:sum(packetBytes) 	4500
attr interpolationmode  none
attr source  sentPk
attr title  "packets sent, sum(packetBytes)"
scalar UniversityNetwork.Students[98].tcpApp[0] 	rcvdPk:count 	6
attr interpolationmode  none
attr source  rcvdPk
attr title  "packets received, count"
scalar UniversityNetwork.Students[98].tcpApp[0] 	rcvdPk:sum(packetBytes) 	4220636
attr interpolationmode  none
attr source  rcvdPk
attr title  "packets received, sum(packetBytes)"
statistic UniversityNetwork.Students[98].tcpApp[0] 	endToEndDelay:histogram
field count 6
field mean 23.392726132712
field stddev 20.245505627716
field sum 140.35635679627
field sqrsum 5332.7203061297
field min 0.564496148171
field max 58.289082494847
attr interpolationmode  none
attr source  messageAge(rcvdPk)
attr title  "end-to-end delay, histogram"
attr unit  s
bin	-INF	0
bin	-28.297797025167	0
bin	-24.449491268722	0
bin	-20.601185512277	0
bin	-16.752879755832	0
bin	-12.904573999387	0
bin	-9.0562682429417	0
bin	-5.2079624864966	0
bin	-1.3596567300515	1
bin	2.4886490263935	0
bin	6.3369547828386	1
bin	10.185260539284	0
bin	14.033566295729	0
bin	17.881872052174	1
bin	21.730177808619	1
bin	25.578483565064	1
bin	29.426789321509	0
bin	33.275095077954	0
bin	37.123400834399	0
bin	40.971706590844	0
bin	44.820012347289	0
bin	48.668318103734	0
bin	52.516623860179	0
bin	56.364929616624	1
bin	60.21323537307	0
bin	64.061541129515	0
bin	67.90984688596	0
bin	71.758152642405	0
bin	75.60645839885	0
bin	79.454764155295	0
bin	83.30306991174	0
bin	87.151375668185	0
scalar UniversityNetwork.Students[99].networkLayer.arp 	initiatedARPResolution:count 	3
attr title  "ARP initiated resolutions, count"
scalar UniversityNetwork.Students[99].networkLayer.arp 	sentReply:count 	1
attr title  "ARP replies sent, count"
scalar UniversityNetwork.Students[99].networkLayer.arp 	sentReq:count 	5
attr title  "ARP request sent, count"
scalar UniversityNetwork.Students[99].networkLayer.arp 	failedARPResolution:count 	0
attr title  "ARP failed resolutions, count"
scalar UniversityNetwork.Students[99].networkLayer.arp 	completedARPResolution:count 	45
attr title  "ARP completed resolutions, count"
scalar UniversityNetwork.Students[99].lo0.lo 	rcvdPkFromHL:count 	0
attr interpolationmode  none
attr source  packetReceivedFromUpper
attr title  "packets received from higher layer, count"
scalar UniversityNetwork.Students[99].lo0.lo 	rcvdPkFromHL:sum(packetBytes) 	0
attr interpolationmode  none
attr source  packetReceivedFromUpper
attr title  "packets received from higher layer, sum(packetBytes)"
scalar UniversityNetwork.Students[99].lo0.lo 	passedUpPk:count 	0
attr interpolationmode  none
attr source  packetSentToUpper
attr title  "packets passed to higher layer, count"
scalar UniversityNetwork.Students[99].lo0.lo 	passedUpPk:sum(packetBytes) 	0
attr interpolationmode  none
attr source  packetSentToUpper
attr title  "packets passed to higher layer, sum(packetBytes)"
scalar UniversityNetwork.Students[99].lo0.lo 	droppedPkBitError:count 	0
attr interpolationmode  none
attr source  dropPkBitError
attr title  "packets dropped/bit error, count"
scalar UniversityNetwork.Students[99].lo0.lo 	droppedPkBitError:sum(packetBytes) 	0
attr interpolationmode  none
attr source  dropPkBitError
attr title  "packets dropped/bit error, sum(packetBytes)"
scalar UniversityNetwork.Students[99].wlan[0].agent 	dropConfirm:count 	0
attr title  "dropped confirms, count"
scalar UniversityNetwork.Students[99].wlan[0].agent 	acceptConfirm:count 	3
attr title  "accepted confirms, count"
scalar UniversityNetwork.Students[99].wlan[0].agent 	sentRequest:count 	3
attr title  "sent requests, count"
scalar UniversityNetwork.Students[99].wlan[0].mgmt 	dropPkByQueue:count 	0
attr interpolationmode  none
attr source  dropPkByQueue
attr title  "packets dropped by queue, count"
scalar UniversityNetwork.Students[99].wlan[0].mgmt 	dropPkByQueue:sum(packetBytes) 	0
attr interpolationmode  none
attr source  dropPkByQueue
attr title  "packets dropped by queue, sum(packetBytes)"
scalar UniversityNetwork.Students[99].wlan[0].mgmt 	dataQueueLen:max 	3
attr interpolationmode  sample-hold
attr title  "data queue length, max"
scalar UniversityNetwork.Students[99].wlan[0].mgmt 	dataQueueLen:timeavg 	0.00030582690451
attr interpolationmode  sample-hold
attr title  "data queue length, timeavg"
scalar UniversityNetwork.Students[99].wlan[0].mac 	"number of received packets" 	3985
scalar UniversityNetwork.Students[99].wlan[0].mac 	"number of collisions" 	19157
scalar UniversityNetwork.Students[99].wlan[0].mac 	"number of internal collisions" 	0
scalar UniversityNetwork.Students[99].wlan[0].mac 	"number of retry for AC 0" 	269
scalar UniversityNetwork.Students[99].wlan[0].mac 	"sent and received bits" 	2654880
scalar UniversityNetwork.Students[99].wlan[0].mac 	"sent packet within AC 0" 	4002
scalar UniversityNetwork.Students[99].wlan[0].mac 	"sent in TXOP " 	0
scalar UniversityNetwork.Students[99].wlan[0].mac 	"sentWithoutRetry AC 0" 	3749
scalar UniversityNetwork.Students[99].wlan[0].mac 	"numGivenUp AC 0" 	0
scalar UniversityNetwork.Students[99].wlan[0].mac 	"numDropped AC 0" 	0
scalar UniversityNetwork.Students[99].wlan[0].mac 	rcvdPkFromHL:count 	4003
attr interpolationmode  none
attr source  packetReceivedFromUpper
attr title  "packets received from higher layer, count"
scalar UniversityNetwork.Students[99].wlan[0].mac 	rcvdPkFromHL:sum(packetBytes) 	331860
attr interpolationmode  none
attr source  packetReceivedFromUpper
attr title  "packets received from higher layer, sum(packetBytes)"
scalar UniversityNetwork.Students[99].wlan[0].mac 	passedUpPk:count 	7636
attr interpolationmode  none
attr source  packetSentToUpper
attr title  "packets passed to higher layer, count"
scalar UniversityNetwork.Students[99].wlan[0].mac 	passedUpPk:sum(packetBytes) 	6323790
attr interpolationmode  none
attr source  packetSentToUpper
attr title  "packets passed to higher layer, sum(packetBytes)"
scalar UniversityNetwork.Students[99].wlan[0].mac 	rcvdPkFromLL:count 	1138805
attr interpolationmode  none
attr source  packetReceivedFromLower
attr title  "packets received from lower layer, count"
scalar UniversityNetwork.Students[99].wlan[0].mac 	rcvdPkFromLL:sum(packetBytes) 	477496750
attr interpolationmode  none
attr source  packetReceivedFromLower
attr title  "packets received from lower layer, sum(packetBytes)"
scalar UniversityNetwork.Students[99].wlan[0].mac 	sentDownPk:count 	8257
attr interpolationmode  none
attr source  packetSentToLower
attr title  "packets sent to lower layer, count"
scalar UniversityNetwork.Students[99].wlan[0].mac 	sentDownPk:sum(packetBytes) 	409672
attr interpolationmode  none
attr source  packetSentToLower
attr title  "packets sent to lower layer, sum(packetBytes)"
scalar UniversityNetwork.Students[99].wlan[0].radio 	lossRate:min 	0
attr interpolationmode  backward-sample-hold
attr title  "packet loss rate, min"
scalar UniversityNetwork.Students[99].wlan[0].radio 	lossRate:max 	0.32
attr interpolationmode  backward-sample-hold
attr title  "packet loss rate, max"
scalar UniversityNetwork.Students[99].wlan[0].radio 	lossRate:timeavg 	0.01683330036969
attr interpolationmode  backward-sample-hold
attr title  "packet loss rate, timeavg"
statistic UniversityNetwork.Students[99].wlan[0].radio 	channelNo:histogram
field count 1
field mean 0
field stddev -nan
field sum 0
field sqrsum 0
field min 0
field max 0
attr interpolationmode  sample-hold
attr title  "channel no, histogram"
bin	-INF	0
bin	-0.5	0
bin	-0.46666666666667	0
bin	-0.43333333333333	0
bin	-0.4	0
bin	-0.36666666666667	0
bin	-0.33333333333333	0
bin	-0.3	0
bin	-0.26666666666667	0
bin	-0.23333333333333	0
bin	-0.2	0
bin	-0.16666666666667	0
bin	-0.13333333333333	0
bin	-0.1	0
bin	-0.066666666666667	0
bin	-0.033333333333333	0
bin	0	1
bin	0.033333333333333	0
bin	0.066666666666667	0
bin	0.1	0
bin	0.13333333333333	0
bin	0.16666666666667	0
bin	0.2	0
bin	0.23333333333333	0
bin	0.26666666666667	0
bin	0.3	0
bin	0.33333333333333	0
bin	0.36666666666667	0
bin	0.4	0
bin	0.43333333333333	0
bin	0.46666666666667	0
bin	0.5	0
scalar UniversityNetwork.Students[99].wlan[0].radio 	radioState:count 	2294465
attr interpolationmode  sample-hold
attr title  "radio state (enum), count"
scalar UniversityNetwork.Students[99].wlan[0].radio 	bitrate:min 	54000000
attr interpolationmode  sample-hold
attr title  "tx bitrate, min"
attr unit  bps
scalar UniversityNetwork.Students[99].wlan[0].radio 	bitrate:max 	54000000
attr interpolationmode  sample-hold
attr title  "tx bitrate, max"
attr unit  bps
scalar UniversityNetwork.Students[99].wlan[0].radio 	bitrate:timeavg 	54000000
attr interpolationmode  sample-hold
attr title  "tx bitrate, timeavg"
attr unit  bps
scalar UniversityNetwork.Students[99].tcpApp[0] 	numActiveSessions:max 	1
attr interpolationmode  sample-hold
attr source  sum(connect)
attr title  "number of active sessions, max"
scalar UniversityNetwork.Students[99].tcpApp[0] 	numActiveSessions:timeavg 	0.72882285187258
attr interpolationmode  sample-hold
attr source  sum(connect)
attr title  "number of active sessions, timeavg"
scalar UniversityNetwork.Students[99].tcpApp[0] 	numSessions:last 	5
attr source  sum(connect+1)/2
attr title  "total number of sessions, last"
scalar UniversityNetwork.Students[99].tcpApp[0] 	sentPk:count 	5
attr interpolationmode  none
attr source  sentPk
attr title  "packets sent, count"
scalar UniversityNetwork.Students[99].tcpApp[0] 	sentPk:sum(packetBytes) 	3750
attr interpolationmode  none
attr source  sentPk
attr title  "packets sent, sum(packetBytes)"
scalar UniversityNetwork.Students[99].tcpApp[0] 	rcvdPk:count 	4
attr interpolationmode  none
attr source  rcvdPk
attr title  "packets received, count"
scalar UniversityNetwork.Students[99].tcpApp[0] 	rcvdPk:sum(packetBytes) 	3016696
attr interpolationmode  none
attr source  rcvdPk
attr title  "packets received, sum(packetBytes)"
statistic UniversityNetwork.Students[99].tcpApp[0] 	endToEndDelay:histogram
field count 4
field mean 25.763792089432
field stddev 9.5034753186778
field sum 103.05516835773
field sqrsum 2926.040060708
field min 19.806079264532
field max 39.771153781057
attr interpolationmode  none
attr source  messageAge(rcvdPk)
attr title  "end-to-end delay, histogram"
attr unit  s
bin	-INF	0
bin	9.8235420062695	0
bin	11.154546974038	0
bin	12.485551941806	0
bin	13.816556909574	0
bin	15.147561877343	0
bin	16.478566845111	0
bin	17.809571812879	0
bin	19.140576780648	2
bin	20.471581748416	0
bin	21.802586716184	0
bin	23.133591683953	1
bin	24.464596651721	0
bin	25.795601619489	0
bin	27.126606587258	0
bin	28.457611555026	0
bin	29.788616522795	0
bin	31.119621490563	0
bin	32.450626458331	0
bin	33.7816314261	0
bin	35.112636393868	0
bin	36.443641361636	0
bin	37.774646329405	0
bin	39.105651297173	1
bin	40.436656264941	0
bin	41.76766123271	0
bin	43.098666200478	0
bin	44.429671168246	0
bin	45.760676136015	0
bin	47.091681103783	0
bin	48.422686071551	0
bin	49.75369103932	0
